 LISTING FILE: mt.list
                         UNIT  16

 OPENING mt3d_link.ftl
 FILE TYPE:FTL   UNIT  10

 OPENING mt.btn
 FILE TYPE:BTN   UNIT  31

 OPENING mt.adv
 FILE TYPE:ADV   UNIT  32

 OPENING mt.dsp
 FILE TYPE:DSP   UNIT  33

 OPENING mt.ssm
 FILE TYPE:SSM   UNIT  34

 OPENING mt.gcg
 FILE TYPE:GCG   UNIT  35

                              +++++++++++++++++++++++++++++++++++++++++++++++++++++++++++++++++++++++
                              +                                                                     +
                              +                              MT3D-USGS                              +
                              +             A Modular 3D Multi-Species Transport Model              +
                              +    For Simulation of Advection, Dispersion and Chemical Reactions   +
                              +                of Contaminants in Groundwater Systems               +
                              +                                                                     +
                              +++++++++++++++++++++++++++++++++++++++++++++++++++++++++++++++++++++++

  ----- 
 | M T | ## BTN for MT3DMS, generated by Flopy.                                          
 | 3 D | ##                                                                              
  ----- 
 THE TRANSPORT MODEL CONSISTS OF     1 LAYER(S)  180 ROW(S)  180 COLUMN(S)
 NUMBER OF STRESS PERIOD(S) FOR TRANSPORT SIMULATION =   20
 NUMBER OF ALL COMPONENTS INCLUDED IN SIMULATION =    1
 NUMBER OF MOBILE COMPONENTS INCLUDED IN SIMULATION =    1
 UNIT FOR TIME IS D   ;  UNIT FOR LENGTH IS M   ;  UNIT FOR MASS IS KG  
 OPTIONAL PACKAGES INCLUDED IN CURRENT SIMULATION:
  o ADV   ON UNIT 32
  o DSP   ON UNIT 33
  o SSM   ON UNIT 34
  o GCG   ON UNIT 35


 BTN1 -- BASIC TRANSPORT PACKAGE, VERSION 1, MAY 2016, INPUT READ FROM UNIT 31

 BTN PACKAGE KEYWORD INPUT: 
 DRYCELL OPTION NOT SET
  DRY CELL BUDGET OMITTED FROM GLAOBAL MASS BALANCE SUMMARY

 LAYER NUMBER  AQUIFER TYPE
 ------------  ------------
       1            0

                           WIDTH ALONG ROWS (DELR)  READ ON UNIT 31 USING FORMAT: "         (180E15.6) "
                           -----------------------------------------------------------------------------

                           WIDTH ALONG COLS (DELC)  READ ON UNIT 31 USING FORMAT: "         (180E15.6) "
                           -----------------------------------------------------------------------------
                                       TOP ELEV. OF 1ST LAYER   =   0.000000    
                                       CELL THICKNESS (DZ)      =   52.00000     FOR LAYER  1
                                       POROSITY                 =  0.3000000     FOR LAYER  1
                                       CONCN. BOUNDARY ARRAY    =              1 FOR LAYER  1
                                       INITIAL CONC.: COMP.  01 =   1.900000     FOR LAYER  1

 VALUE INDICATING INACTIVE CONCENTRATION CELLS =   0.1000000E+31
 MINIMUM SATURATED THICKNESS [THKMIN] ALLOWED =  0.0100000 OF TOTAL CELL THICKNESS


 OUTPUT CONTROL OPTIONS
 ----------------------

 DO NOT PRINT CELL CONCENTRATION
 DO NOT PRINT PARTICLE NUMBER IN EACH CELL
 DO NOT PRINT RETARDATION FACTOR
 DO NOT PRINT DISPERSION COEFFICIENT
 SAVE DISSOLVED PHASE CONCENTRATIONS IN UNFORMATTED FILES [MT3Dnnn.UCN]
  FOR EACH SPECIES ON UNITS 201 AND ABOVE

 SIMULATION RESULTS ARE SAVED EVERY   1 TRANSPORT STEP(S)

 NUMBER OF OBSERVATION POINTS =    0

 SAVE ONE-LINE SUMMARY OF MASS BUDGETS IN FILES [MT3Dnnn.MAS]
  FOR EACH SPECIES ON UNITS 601 AND ABOVE, EVERY  1 TRANSPORT STEPS

 MAXIMUM LENGTH ALONG THE X (J) AXIS =   10040.00    
 MAXIMUM LENGTH ALONG THE Y (I) AXIS =   10040.00    
 MAXIMUM LENGTH ALONG THE Z (K) AXIS =   52.00000    
 FMI1 -- FLOW MODEL INTERFACE PACKAGE, VERSION 1, MAY 2016, INPUT READ FROM UNIT 10
 FLOW MODEL IS TRANSIENT


 ADV1 -- ADVECTION PACKAGE, VERSION 1, MAY 2016, INPUT READ FROM UNIT 32
 ADVECTION IS SOLVED WITH THE UPSTREAM FINITE DIFFERENCE SCHEME
 COURANT NUMBER ALLOWED IN SOLVING THE ADVECTION TERM = 0.750    


 ADVECTION SOLUTION OPTIONS
 --------------------------

 ADVECTION IS SOLVED WITH THE UPSTREAM FINITE DIFFERENCE SCHEME
 COURANT NUMBER ALLOWED IN SOLVING THE ADVECTION TERM = 0.750    

 DSP1 -- DISPERSION PACKAGE, VERSION 1, MAY 2016, INPUT READ FROM UNIT 33


 DISPERSION INPUT PARAMETERS
 ---------------------------

                                       LONG. DISPERSIVITY (AL)  =   5.000000     FOR LAYER  1
                                       H. TRANS./LONG. DISP.    =  0.1000000    
                                       V. TRANS./LONG. DISP.    =  0.1000000E-01
                                       DIFFUSION COEFFICIENT    =  0.1000000E-08

 SSM1 -- SINK & SOURCE MIXING PACKAGE, VERSION 1, MAY 2016, INPUT READ FROM UNIT 34
 HEADER LINE OF THE SSM PACKAGE INPUT FILE:
  T F F F F F F F F F F F F F F F                                        
 MAJOR STRESS COMPONENTS PRESENT IN THE FLOW MODEL:
  o WELL [WEL]
 MAXIMUM NUMBER OF POINT SINKS/SOURCES =     361

 GCG1 -- GENERALIZED CONJUGATE GRADIENT SOLVER PACKAGE, VERSION 1, OCTOBER 2010 INPUT READ FROM UNIT 35
 MAXIMUM OF    1 OUTER ITERATIONS
        AND  100 INNER ITERATIONS ALLOWED FOR CLOSURE
 THE PRECONDITIONING TYPE SELECTED IS MODIFIED INCOMPLETE CHOLESKY (MIC).
 DISPERSION CROSS TERMS LUMPED INTO RIGHT-HAND-SIDE



                                               SOLUTION BY THE GENERALIZED CONJUGATE GRADIENT METHOD
                                               -----------------------------------------------------
                                     MAXIMUM OUTER ITERATIONS ALLOWED FOR CLOSURE =        1
                                     MAXIMUM INNER ITERATIONS ALLOWED FOR CLOSURE =      100
                                                    PRECONDITIONING TYPE SELECTED =    3
                                                           ACCELERATION PARAMETER =     1.0000    
                                       CONCENTRATION CHANGE CRITERION FOR CLOSURE =    0.10000E-04
                                       GCG CONCENTRATION CHANGE PRINTOUT INTERVAL =      999


                                   ++++++++++++++++++++++++++++++++++++++++++++++++++++++++++++++
                                                       STRESS PERIOD NO.  001
                                   ++++++++++++++++++++++++++++++++++++++++++++++++++++++++++++++


 LENGTH OF CURRENT STRESS PERIOD =   30.00000    
 NUMBER OF TIME STEPS FOR CURRENT STRESS PERIOD =    1
 TIME STEP MULTIPLIER USED IN FLOW SOLUTION =   1.000000    

 ***Type of Transport Simulation is TRANSIENT

 USER-SPECIFIED TRANSPORT STEPSIZE =   30.00000    D   
 MAXIMUM NUMBER OF TRANSPORT STEPS ALLOWED  IN ONE FLOW TIME STEP =     50000
 MULTIPLIER FOR SUCCESSIVE TRANSPORT STEPS  [USED IN IMPLICIT SCHEMES] =     1.000
 MAXIMUM TRANSPORT STEP SIZE  [USED IN IMPLICIT SCHEMES] =   0.000000    D   

       NO    LAYER   ROW   COLUMN   CONCENTRATION       TYPE            COMPONENT
       1       1       1       1       1.900000         CONSTANT HEAD       1
       2       1       1     180       1.900000         CONSTANT HEAD       1
       3       1       2       1       1.900000         CONSTANT HEAD       1
       4       1       2     180       1.900000         CONSTANT HEAD       1
       5       1       3       1       1.900000         CONSTANT HEAD       1
       6       1       3     180       1.900000         CONSTANT HEAD       1
       7       1       4       1       1.900000         CONSTANT HEAD       1
       8       1       4     180       1.900000         CONSTANT HEAD       1
       9       1       5       1       1.900000         CONSTANT HEAD       1
      10       1       5     180       1.900000         CONSTANT HEAD       1
      11       1       6       1       1.900000         CONSTANT HEAD       1
      12       1       6     180       1.900000         CONSTANT HEAD       1
      13       1       7       1       1.900000         CONSTANT HEAD       1
      14       1       7     180       1.900000         CONSTANT HEAD       1
      15       1       8       1       1.900000         CONSTANT HEAD       1
      16       1       8     180       1.900000         CONSTANT HEAD       1
      17       1       9       1       1.900000         CONSTANT HEAD       1
      18       1       9     180       1.900000         CONSTANT HEAD       1
      19       1      10       1       1.900000         CONSTANT HEAD       1
      20       1      10     180       1.900000         CONSTANT HEAD       1
      21       1      11       1       1.900000         CONSTANT HEAD       1
      22       1      11     180       1.900000         CONSTANT HEAD       1
      23       1      12       1       1.900000         CONSTANT HEAD       1
      24       1      12     180       1.900000         CONSTANT HEAD       1
      25       1      13       1       1.900000         CONSTANT HEAD       1
      26       1      13     180       1.900000         CONSTANT HEAD       1
      27       1      14       1       1.900000         CONSTANT HEAD       1
      28       1      14     180       1.900000         CONSTANT HEAD       1
      29       1      15       1       1.900000         CONSTANT HEAD       1
      30       1      15     180       1.900000         CONSTANT HEAD       1
      31       1      16       1       1.900000         CONSTANT HEAD       1
      32       1      16     180       1.900000         CONSTANT HEAD       1
      33       1      17       1       1.900000         CONSTANT HEAD       1
      34       1      17     180       1.900000         CONSTANT HEAD       1
      35       1      18       1       1.900000         CONSTANT HEAD       1
      36       1      18     180       1.900000         CONSTANT HEAD       1
      37       1      19       1       1.900000         CONSTANT HEAD       1
      38       1      19     180       1.900000         CONSTANT HEAD       1
      39       1      20       1       1.900000         CONSTANT HEAD       1
      40       1      20     180       1.900000         CONSTANT HEAD       1
      41       1      21       1       1.900000         CONSTANT HEAD       1
      42       1      21     180       1.900000         CONSTANT HEAD       1
      43       1      22       1       1.900000         CONSTANT HEAD       1
      44       1      22     180       1.900000         CONSTANT HEAD       1
      45       1      23       1       1.900000         CONSTANT HEAD       1
      46       1      23     180       1.900000         CONSTANT HEAD       1
      47       1      24       1       1.900000         CONSTANT HEAD       1
      48       1      24     180       1.900000         CONSTANT HEAD       1
      49       1      25       1       1.900000         CONSTANT HEAD       1
      50       1      25     180       1.900000         CONSTANT HEAD       1
      51       1      26       1       1.900000         CONSTANT HEAD       1
      52       1      26     180       1.900000         CONSTANT HEAD       1
      53       1      27       1       1.900000         CONSTANT HEAD       1
      54       1      27     180       1.900000         CONSTANT HEAD       1
      55       1      28       1       1.900000         CONSTANT HEAD       1
      56       1      28     180       1.900000         CONSTANT HEAD       1
      57       1      29       1       1.900000         CONSTANT HEAD       1
      58       1      29     180       1.900000         CONSTANT HEAD       1
      59       1      30       1       1.900000         CONSTANT HEAD       1
      60       1      30     180       1.900000         CONSTANT HEAD       1
      61       1      31       1       1.900000         CONSTANT HEAD       1
      62       1      31     180       1.900000         CONSTANT HEAD       1
      63       1      32       1       1.900000         CONSTANT HEAD       1
      64       1      32     180       1.900000         CONSTANT HEAD       1
      65       1      33       1       1.900000         CONSTANT HEAD       1
      66       1      33     180       1.900000         CONSTANT HEAD       1
      67       1      34       1       1.900000         CONSTANT HEAD       1
      68       1      34     180       1.900000         CONSTANT HEAD       1
      69       1      35       1       1.900000         CONSTANT HEAD       1
      70       1      35     180       1.900000         CONSTANT HEAD       1
      71       1      36       1       1.900000         CONSTANT HEAD       1
      72       1      36     180       1.900000         CONSTANT HEAD       1
      73       1      37       1       1.900000         CONSTANT HEAD       1
      74       1      37     180       1.900000         CONSTANT HEAD       1
      75       1      38       1       1.900000         CONSTANT HEAD       1
      76       1      38     180       1.900000         CONSTANT HEAD       1
      77       1      39       1       1.900000         CONSTANT HEAD       1
      78       1      39     180       1.900000         CONSTANT HEAD       1
      79       1      40       1       1.900000         CONSTANT HEAD       1
      80       1      40     180       1.900000         CONSTANT HEAD       1
      81       1      41       1       1.900000         CONSTANT HEAD       1
      82       1      41     180       1.900000         CONSTANT HEAD       1
      83       1      42       1       1.900000         CONSTANT HEAD       1
      84       1      42     180       1.900000         CONSTANT HEAD       1
      85       1      43       1       1.900000         CONSTANT HEAD       1
      86       1      43     180       1.900000         CONSTANT HEAD       1
      87       1      44       1       1.900000         CONSTANT HEAD       1
      88       1      44     180       1.900000         CONSTANT HEAD       1
      89       1      45       1       1.900000         CONSTANT HEAD       1
      90       1      45     180       1.900000         CONSTANT HEAD       1
      91       1      46       1       1.900000         CONSTANT HEAD       1
      92       1      46     180       1.900000         CONSTANT HEAD       1
      93       1      47       1       1.900000         CONSTANT HEAD       1
      94       1      47     180       1.900000         CONSTANT HEAD       1
      95       1      48       1       1.900000         CONSTANT HEAD       1
      96       1      48     180       1.900000         CONSTANT HEAD       1
      97       1      49       1       1.900000         CONSTANT HEAD       1
      98       1      49     180       1.900000         CONSTANT HEAD       1
      99       1      50       1       1.900000         CONSTANT HEAD       1
     100       1      50     180       1.900000         CONSTANT HEAD       1
     101       1      51       1       1.900000         CONSTANT HEAD       1
     102       1      51     180       1.900000         CONSTANT HEAD       1
     103       1      52       1       1.900000         CONSTANT HEAD       1
     104       1      52     180       1.900000         CONSTANT HEAD       1
     105       1      53       1       1.900000         CONSTANT HEAD       1
     106       1      53     180       1.900000         CONSTANT HEAD       1
     107       1      54       1       1.900000         CONSTANT HEAD       1
     108       1      54     180       1.900000         CONSTANT HEAD       1
     109       1      55       1       1.900000         CONSTANT HEAD       1
     110       1      55     180       1.900000         CONSTANT HEAD       1
     111       1      56       1       1.900000         CONSTANT HEAD       1
     112       1      56     180       1.900000         CONSTANT HEAD       1
     113       1      57       1       1.900000         CONSTANT HEAD       1
     114       1      57     180       1.900000         CONSTANT HEAD       1
     115       1      58       1       1.900000         CONSTANT HEAD       1
     116       1      58     180       1.900000         CONSTANT HEAD       1
     117       1      59       1       1.900000         CONSTANT HEAD       1
     118       1      59     180       1.900000         CONSTANT HEAD       1
     119       1      60       1       1.900000         CONSTANT HEAD       1
     120       1      60     180       1.900000         CONSTANT HEAD       1
     121       1      61       1       1.900000         CONSTANT HEAD       1
     122       1      61     180       1.900000         CONSTANT HEAD       1
     123       1      62       1       1.900000         CONSTANT HEAD       1
     124       1      62     180       1.900000         CONSTANT HEAD       1
     125       1      63       1       1.900000         CONSTANT HEAD       1
     126       1      63     180       1.900000         CONSTANT HEAD       1
     127       1      64       1       1.900000         CONSTANT HEAD       1
     128       1      64     180       1.900000         CONSTANT HEAD       1
     129       1      65       1       1.900000         CONSTANT HEAD       1
     130       1      65     180       1.900000         CONSTANT HEAD       1
     131       1      66       1       1.900000         CONSTANT HEAD       1
     132       1      66     180       1.900000         CONSTANT HEAD       1
     133       1      67       1       1.900000         CONSTANT HEAD       1
     134       1      67     180       1.900000         CONSTANT HEAD       1
     135       1      68       1       1.900000         CONSTANT HEAD       1
     136       1      68     180       1.900000         CONSTANT HEAD       1
     137       1      69       1       1.900000         CONSTANT HEAD       1
     138       1      69     180       1.900000         CONSTANT HEAD       1
     139       1      70       1       1.900000         CONSTANT HEAD       1
     140       1      70     180       1.900000         CONSTANT HEAD       1
     141       1      71       1       1.900000         CONSTANT HEAD       1
     142       1      71     180       1.900000         CONSTANT HEAD       1
     143       1      72       1       1.900000         CONSTANT HEAD       1
     144       1      72     180       1.900000         CONSTANT HEAD       1
     145       1      73       1       1.900000         CONSTANT HEAD       1
     146       1      73     180       1.900000         CONSTANT HEAD       1
     147       1      74       1       1.900000         CONSTANT HEAD       1
     148       1      74     180       1.900000         CONSTANT HEAD       1
     149       1      75       1       1.900000         CONSTANT HEAD       1
     150       1      75     180       1.900000         CONSTANT HEAD       1
     151       1      76       1       1.900000         CONSTANT HEAD       1
     152       1      76     180       1.900000         CONSTANT HEAD       1
     153       1      77       1       1.900000         CONSTANT HEAD       1
     154       1      77     180       1.900000         CONSTANT HEAD       1
     155       1      78       1       1.900000         CONSTANT HEAD       1
     156       1      78     180       1.900000         CONSTANT HEAD       1
     157       1      79       1       1.900000         CONSTANT HEAD       1
     158       1      79     180       1.900000         CONSTANT HEAD       1
     159       1      80       1       1.900000         CONSTANT HEAD       1
     160       1      80     180       1.900000         CONSTANT HEAD       1
     161       1      81       1       1.900000         CONSTANT HEAD       1
     162       1      81     180       1.900000         CONSTANT HEAD       1
     163       1      82       1       1.900000         CONSTANT HEAD       1
     164       1      82     180       1.900000         CONSTANT HEAD       1
     165       1      83       1       1.900000         CONSTANT HEAD       1
     166       1      83     180       1.900000         CONSTANT HEAD       1
     167       1      84       1       1.900000         CONSTANT HEAD       1
     168       1      84     180       1.900000         CONSTANT HEAD       1
     169       1      85       1       1.900000         CONSTANT HEAD       1
     170       1      85     180       1.900000         CONSTANT HEAD       1
     171       1      86       1       1.900000         CONSTANT HEAD       1
     172       1      86     180       1.900000         CONSTANT HEAD       1
     173       1      87       1       1.900000         CONSTANT HEAD       1
     174       1      87     180       1.900000         CONSTANT HEAD       1
     175       1      88       1       1.900000         CONSTANT HEAD       1
     176       1      88     180       1.900000         CONSTANT HEAD       1
     177       1      89       1       1.900000         CONSTANT HEAD       1
     178       1      89     180       1.900000         CONSTANT HEAD       1
     179       1      90       1       1.900000         CONSTANT HEAD       1
     180       1      90     180       1.900000         CONSTANT HEAD       1
     181       1      91       1       1.900000         CONSTANT HEAD       1
     182       1      91     180       1.900000         CONSTANT HEAD       1
     183       1      92       1       1.900000         CONSTANT HEAD       1
     184       1      92     180       1.900000         CONSTANT HEAD       1
     185       1      93       1       1.900000         CONSTANT HEAD       1
     186       1      93     180       1.900000         CONSTANT HEAD       1
     187       1      94       1       1.900000         CONSTANT HEAD       1
     188       1      94     180       1.900000         CONSTANT HEAD       1
     189       1      95       1       1.900000         CONSTANT HEAD       1
     190       1      95     180       1.900000         CONSTANT HEAD       1
     191       1      96       1       1.900000         CONSTANT HEAD       1
     192       1      96     180       1.900000         CONSTANT HEAD       1
     193       1      97       1       1.900000         CONSTANT HEAD       1
     194       1      97     180       1.900000         CONSTANT HEAD       1
     195       1      98       1       1.900000         CONSTANT HEAD       1
     196       1      98     180       1.900000         CONSTANT HEAD       1
     197       1      99       1       1.900000         CONSTANT HEAD       1
     198       1      99     180       1.900000         CONSTANT HEAD       1
     199       1     100       1       1.900000         CONSTANT HEAD       1
     200       1     100     180       1.900000         CONSTANT HEAD       1
     201       1     101       1       1.900000         CONSTANT HEAD       1
     202       1     101     180       1.900000         CONSTANT HEAD       1
     203       1     102       1       1.900000         CONSTANT HEAD       1
     204       1     102     180       1.900000         CONSTANT HEAD       1
     205       1     103       1       1.900000         CONSTANT HEAD       1
     206       1     103     180       1.900000         CONSTANT HEAD       1
     207       1     104       1       1.900000         CONSTANT HEAD       1
     208       1     104     180       1.900000         CONSTANT HEAD       1
     209       1     105       1       1.900000         CONSTANT HEAD       1
     210       1     105     180       1.900000         CONSTANT HEAD       1
     211       1     106       1       1.900000         CONSTANT HEAD       1
     212       1     106     180       1.900000         CONSTANT HEAD       1
     213       1     107       1       1.900000         CONSTANT HEAD       1
     214       1     107     180       1.900000         CONSTANT HEAD       1
     215       1     108       1       1.900000         CONSTANT HEAD       1
     216       1     108     180       1.900000         CONSTANT HEAD       1
     217       1     109       1       1.900000         CONSTANT HEAD       1
     218       1     109     180       1.900000         CONSTANT HEAD       1
     219       1     110       1       1.900000         CONSTANT HEAD       1
     220       1     110     180       1.900000         CONSTANT HEAD       1
     221       1     111       1       1.900000         CONSTANT HEAD       1
     222       1     111     180       1.900000         CONSTANT HEAD       1
     223       1     112       1       1.900000         CONSTANT HEAD       1
     224       1     112     180       1.900000         CONSTANT HEAD       1
     225       1     113       1       1.900000         CONSTANT HEAD       1
     226       1     113     180       1.900000         CONSTANT HEAD       1
     227       1     114       1       1.900000         CONSTANT HEAD       1
     228       1     114     180       1.900000         CONSTANT HEAD       1
     229       1     115       1       1.900000         CONSTANT HEAD       1
     230       1     115     180       1.900000         CONSTANT HEAD       1
     231       1     116       1       1.900000         CONSTANT HEAD       1
     232       1     116     180       1.900000         CONSTANT HEAD       1
     233       1     117       1       1.900000         CONSTANT HEAD       1
     234       1     117     180       1.900000         CONSTANT HEAD       1
     235       1     118       1       1.900000         CONSTANT HEAD       1
     236       1     118     180       1.900000         CONSTANT HEAD       1
     237       1     119       1       1.900000         CONSTANT HEAD       1
     238       1     119     180       1.900000         CONSTANT HEAD       1
     239       1     120       1       1.900000         CONSTANT HEAD       1
     240       1     120     180       1.900000         CONSTANT HEAD       1
     241       1     121       1       1.900000         CONSTANT HEAD       1
     242       1     121     180       1.900000         CONSTANT HEAD       1
     243       1     122       1       1.900000         CONSTANT HEAD       1
     244       1     122     180       1.900000         CONSTANT HEAD       1
     245       1     123       1       1.900000         CONSTANT HEAD       1
     246       1     123     180       1.900000         CONSTANT HEAD       1
     247       1     124       1       1.900000         CONSTANT HEAD       1
     248       1     124     180       1.900000         CONSTANT HEAD       1
     249       1     125       1       1.900000         CONSTANT HEAD       1
     250       1     125     180       1.900000         CONSTANT HEAD       1
     251       1     126       1       1.900000         CONSTANT HEAD       1
     252       1     126     180       1.900000         CONSTANT HEAD       1
     253       1     127       1       1.900000         CONSTANT HEAD       1
     254       1     127     180       1.900000         CONSTANT HEAD       1
     255       1     128       1       1.900000         CONSTANT HEAD       1
     256       1     128     180       1.900000         CONSTANT HEAD       1
     257       1     129       1       1.900000         CONSTANT HEAD       1
     258       1     129     180       1.900000         CONSTANT HEAD       1
     259       1     130       1       1.900000         CONSTANT HEAD       1
     260       1     130     180       1.900000         CONSTANT HEAD       1
     261       1     131       1       1.900000         CONSTANT HEAD       1
     262       1     131     180       1.900000         CONSTANT HEAD       1
     263       1     132       1       1.900000         CONSTANT HEAD       1
     264       1     132     180       1.900000         CONSTANT HEAD       1
     265       1     133       1       1.900000         CONSTANT HEAD       1
     266       1     133     180       1.900000         CONSTANT HEAD       1
     267       1     134       1       1.900000         CONSTANT HEAD       1
     268       1     134     180       1.900000         CONSTANT HEAD       1
     269       1     135       1       1.900000         CONSTANT HEAD       1
     270       1     135     180       1.900000         CONSTANT HEAD       1
     271       1     136       1       1.900000         CONSTANT HEAD       1
     272       1     136     180       1.900000         CONSTANT HEAD       1
     273       1     137       1       1.900000         CONSTANT HEAD       1
     274       1     137     180       1.900000         CONSTANT HEAD       1
     275       1     138       1       1.900000         CONSTANT HEAD       1
     276       1     138     180       1.900000         CONSTANT HEAD       1
     277       1     139       1       1.900000         CONSTANT HEAD       1
     278       1     139     180       1.900000         CONSTANT HEAD       1
     279       1     140       1       1.900000         CONSTANT HEAD       1
     280       1     140     180       1.900000         CONSTANT HEAD       1
     281       1     141       1       1.900000         CONSTANT HEAD       1
     282       1     141     180       1.900000         CONSTANT HEAD       1
     283       1     142       1       1.900000         CONSTANT HEAD       1
     284       1     142     180       1.900000         CONSTANT HEAD       1
     285       1     143       1       1.900000         CONSTANT HEAD       1
     286       1     143     180       1.900000         CONSTANT HEAD       1
     287       1     144       1       1.900000         CONSTANT HEAD       1
     288       1     144     180       1.900000         CONSTANT HEAD       1
     289       1     145       1       1.900000         CONSTANT HEAD       1
     290       1     145     180       1.900000         CONSTANT HEAD       1
     291       1     146       1       1.900000         CONSTANT HEAD       1
     292       1     146     180       1.900000         CONSTANT HEAD       1
     293       1     147       1       1.900000         CONSTANT HEAD       1
     294       1     147     180       1.900000         CONSTANT HEAD       1
     295       1     148       1       1.900000         CONSTANT HEAD       1
     296       1     148     180       1.900000         CONSTANT HEAD       1
     297       1     149       1       1.900000         CONSTANT HEAD       1
     298       1     149     180       1.900000         CONSTANT HEAD       1
     299       1     150       1       1.900000         CONSTANT HEAD       1
     300       1     150     180       1.900000         CONSTANT HEAD       1
     301       1     151       1       1.900000         CONSTANT HEAD       1
     302       1     151     180       1.900000         CONSTANT HEAD       1
     303       1     152       1       1.900000         CONSTANT HEAD       1
     304       1     152     180       1.900000         CONSTANT HEAD       1
     305       1     153       1       1.900000         CONSTANT HEAD       1
     306       1     153     180       1.900000         CONSTANT HEAD       1
     307       1     154       1       1.900000         CONSTANT HEAD       1
     308       1     154     180       1.900000         CONSTANT HEAD       1
     309       1     155       1       1.900000         CONSTANT HEAD       1
     310       1     155     180       1.900000         CONSTANT HEAD       1
     311       1     156       1       1.900000         CONSTANT HEAD       1
     312       1     156     180       1.900000         CONSTANT HEAD       1
     313       1     157       1       1.900000         CONSTANT HEAD       1
     314       1     157     180       1.900000         CONSTANT HEAD       1
     315       1     158       1       1.900000         CONSTANT HEAD       1
     316       1     158     180       1.900000         CONSTANT HEAD       1
     317       1     159       1       1.900000         CONSTANT HEAD       1
     318       1     159     180       1.900000         CONSTANT HEAD       1
     319       1     160       1       1.900000         CONSTANT HEAD       1
     320       1     160     180       1.900000         CONSTANT HEAD       1
     321       1     161       1       1.900000         CONSTANT HEAD       1
     322       1     161     180       1.900000         CONSTANT HEAD       1
     323       1     162       1       1.900000         CONSTANT HEAD       1
     324       1     162     180       1.900000         CONSTANT HEAD       1
     325       1     163       1       1.900000         CONSTANT HEAD       1
     326       1     163     180       1.900000         CONSTANT HEAD       1
     327       1     164       1       1.900000         CONSTANT HEAD       1
     328       1     164     180       1.900000         CONSTANT HEAD       1
     329       1     165       1       1.900000         CONSTANT HEAD       1
     330       1     165     180       1.900000         CONSTANT HEAD       1
     331       1     166       1       1.900000         CONSTANT HEAD       1
     332       1     166     180       1.900000         CONSTANT HEAD       1
     333       1     167       1       1.900000         CONSTANT HEAD       1
     334       1     167     180       1.900000         CONSTANT HEAD       1
     335       1     168       1       1.900000         CONSTANT HEAD       1
     336       1     168     180       1.900000         CONSTANT HEAD       1
     337       1     169       1       1.900000         CONSTANT HEAD       1
     338       1     169     180       1.900000         CONSTANT HEAD       1
     339       1     170       1       1.900000         CONSTANT HEAD       1
     340       1     170     180       1.900000         CONSTANT HEAD       1
     341       1     171       1       1.900000         CONSTANT HEAD       1
     342       1     171     180       1.900000         CONSTANT HEAD       1
     343       1     172       1       1.900000         CONSTANT HEAD       1
     344       1     172     180       1.900000         CONSTANT HEAD       1
     345       1     173       1       1.900000         CONSTANT HEAD       1
     346       1     173     180       1.900000         CONSTANT HEAD       1
     347       1     174       1       1.900000         CONSTANT HEAD       1
     348       1     174     180       1.900000         CONSTANT HEAD       1
     349       1     175       1       1.900000         CONSTANT HEAD       1
     350       1     175     180       1.900000         CONSTANT HEAD       1
     351       1     176       1       1.900000         CONSTANT HEAD       1
     352       1     176     180       1.900000         CONSTANT HEAD       1
     353       1     177       1       1.900000         CONSTANT HEAD       1
     354       1     177     180       1.900000         CONSTANT HEAD       1
     355       1     178       1       1.900000         CONSTANT HEAD       1
     356       1     178     180       1.900000         CONSTANT HEAD       1
     357       1     179       1       1.900000         CONSTANT HEAD       1
     358       1     179     180       1.900000         CONSTANT HEAD       1
     359       1     180       1       1.900000         CONSTANT HEAD       1
     360       1     180     180       1.900000         CONSTANT HEAD       1
     361       1      91      91      0.1500000         WELL                1


                                          ================================================
                                                         TIME STEP NO.  001
                                          ================================================

 FROM TIME =   0.0000     TO    30.000    


                    "THKSAT          " FLOW TERMS FOR TIME STEP  1, STRESS PERIOD  1 READ UNFORMATTED ON UNIT 10
                    --------------------------------------------------------------------------------------------

                    "QXX             " FLOW TERMS FOR TIME STEP  1, STRESS PERIOD  1 READ UNFORMATTED ON UNIT 10
                    --------------------------------------------------------------------------------------------

                    "QYY             " FLOW TERMS FOR TIME STEP  1, STRESS PERIOD  1 READ UNFORMATTED ON UNIT 10
                    --------------------------------------------------------------------------------------------

                    "STO             " FLOW TERMS FOR TIME STEP  1, STRESS PERIOD  1 READ UNFORMATTED ON UNIT 10
                    --------------------------------------------------------------------------------------------

 MAXIMUM STEPSIZE DURING WHICH ANY PARTICLE CANNOT MOVE MORE THAN ONE CELL
 =  1.346    (WHEN MIN. R.F.=1)  AT K=   1, I=  91, J=  90

 MAXIMUM STEPSIZE WHICH MEETS STABILITY CRITERION OF THE ADVECTION TERM
 (FOR PURE FINITE-DIFFERENCE OPTION, MIXELM=0) 
 = 0.4890    (WHEN MIN. R.F.=1)  AT K=   1, I=  91, J=  91

                    "CNH             " FLOW TERMS FOR TIME STEP  1, STRESS PERIOD  1 READ UNFORMATTED ON UNIT 10
                    --------------------------------------------------------------------------------------------

                    "WEL             " FLOW TERMS FOR TIME STEP  1, STRESS PERIOD  1 READ UNFORMATTED ON UNIT 10
                    --------------------------------------------------------------------------------------------


 TOTAL NUMBER OF POINT SOURCES/SINKS PRESENT IN THE FLOW MODEL =   361

 MAXIMUM STEPSIZE WHICH MEETS STABILITY CRITERION OF THE SINK & SOURCE TERM
 = 0.2445    (WHEN MIN. R.F.=1)  AT K=   1, I=  91, J=  91

 MAXIMUM STEPSIZE WHICH MEETS STABILITY CRITERION OF THE DISPERSION TERM
 = 0.2445    (WHEN MIN. R.F.=1)  AT K=   1, I=  91, J=  91


     1 CALLS TO GCG PACKAGE FOR TRANSPORT TIME STEP     1 IN FLOW TIME STEP     1 STRESS PERIOD     1
     12 TOTAL ITERATIONS
  MAXIMUM CONCENTRATION CHANGES FOR EACH ITERATION:
  MAX. CHANGE LAYER,ROW,COL MAX. CHANGE LAYER,ROW,COL MAX. CHANGE LAYER,ROW,COL MAX. CHANGE LAYER,ROW,COL MAX. CHANGE LAYER,ROW,COL
 ------------------------------------------------------------------------------------------------------------------------------------
    1.217     (  1, 91, 91)  0.4377     (  1, 90, 95)  0.1829     (  1, 88, 95)  0.6309E-01 (  1, 97, 86)  0.1689E-01 (  1, 98, 84)
   0.1135E-01 (  1, 99, 83)  0.3531E-02 (  1, 99, 84)  0.2121E-03 (  1,100, 83)  0.1625E-03 (  1,101, 83)  0.6706E-04 (  1,101, 82)
   0.1985E-04 (  1, 82,101)  0.1431E-05 (  1, 79,105)



 >>>>>>>>>>>>>>>>>>>>>>>>>>>>>>>>>>>>>>>>>>>>>>>>>>>>>>>FOR COMPONENT NO. 01<<<<<<<<<<<<<<<<<<<<<<<<<<<<<<<<<<<<<<<<<<<<<<<<<<<<<<<


                                            -------------------------------------------
                                                      TRANSPORT STEP NO.    1
                                            -------------------------------------------

 TOTAL ELAPSED TIME SINCE BEGINNING OF SIMULATION =   30.00000    D   
 .....................................................................

                     CUMULATIVE MASS BUDGETS AT END OF TRANSPORT STEP    1, TIME STEP    1, STRESS PERIOD    1
                     -----------------------------------------------------------------------------------------

                                                             IN                           OUT
                                                      ----------------             ----------------
                               CONSTANT CONCENTRATION:    0.000000                    0.000000    
                                        CONSTANT HEAD:    432249.1                   -432462.6    
                                                WELLS:    7177.757                    0.000000    
                               MASS STOR (FLOW MODEL):    421402.0                   -512107.7    
                                MASS STORAGE (SOLUTE):    83773.62                   -111.9014    
                            ---------------------------------------------------------------------------
                                              [TOTAL]:    944602.5     KG            -944682.2     KG  

                                                          NET (IN - OUT):   -79.68750    
                                                   DISCREPANCY (PERCENT):  -0.8435732E-02


                                   ++++++++++++++++++++++++++++++++++++++++++++++++++++++++++++++
                                                       STRESS PERIOD NO.  002
                                   ++++++++++++++++++++++++++++++++++++++++++++++++++++++++++++++


 LENGTH OF CURRENT STRESS PERIOD =   30.00000    
 NUMBER OF TIME STEPS FOR CURRENT STRESS PERIOD =    1
 TIME STEP MULTIPLIER USED IN FLOW SOLUTION =   1.000000    

 ***Type of Transport Simulation is TRANSIENT

 USER-SPECIFIED TRANSPORT STEPSIZE =   30.00000    D   
 MAXIMUM NUMBER OF TRANSPORT STEPS ALLOWED  IN ONE FLOW TIME STEP =     50000
 MULTIPLIER FOR SUCCESSIVE TRANSPORT STEPS  [USED IN IMPLICIT SCHEMES] =     1.000
 MAXIMUM TRANSPORT STEP SIZE  [USED IN IMPLICIT SCHEMES] =   0.000000    D   

       NO    LAYER   ROW   COLUMN   CONCENTRATION       TYPE            COMPONENT
       1       1       1       1       1.900000         CONSTANT HEAD       1
       2       1       1     180       1.900000         CONSTANT HEAD       1
       3       1       2       1       1.900000         CONSTANT HEAD       1
       4       1       2     180       1.900000         CONSTANT HEAD       1
       5       1       3       1       1.900000         CONSTANT HEAD       1
       6       1       3     180       1.900000         CONSTANT HEAD       1
       7       1       4       1       1.900000         CONSTANT HEAD       1
       8       1       4     180       1.900000         CONSTANT HEAD       1
       9       1       5       1       1.900000         CONSTANT HEAD       1
      10       1       5     180       1.900000         CONSTANT HEAD       1
      11       1       6       1       1.900000         CONSTANT HEAD       1
      12       1       6     180       1.900000         CONSTANT HEAD       1
      13       1       7       1       1.900000         CONSTANT HEAD       1
      14       1       7     180       1.900000         CONSTANT HEAD       1
      15       1       8       1       1.900000         CONSTANT HEAD       1
      16       1       8     180       1.900000         CONSTANT HEAD       1
      17       1       9       1       1.900000         CONSTANT HEAD       1
      18       1       9     180       1.900000         CONSTANT HEAD       1
      19       1      10       1       1.900000         CONSTANT HEAD       1
      20       1      10     180       1.900000         CONSTANT HEAD       1
      21       1      11       1       1.900000         CONSTANT HEAD       1
      22       1      11     180       1.900000         CONSTANT HEAD       1
      23       1      12       1       1.900000         CONSTANT HEAD       1
      24       1      12     180       1.900000         CONSTANT HEAD       1
      25       1      13       1       1.900000         CONSTANT HEAD       1
      26       1      13     180       1.900000         CONSTANT HEAD       1
      27       1      14       1       1.900000         CONSTANT HEAD       1
      28       1      14     180       1.900000         CONSTANT HEAD       1
      29       1      15       1       1.900000         CONSTANT HEAD       1
      30       1      15     180       1.900000         CONSTANT HEAD       1
      31       1      16       1       1.900000         CONSTANT HEAD       1
      32       1      16     180       1.900000         CONSTANT HEAD       1
      33       1      17       1       1.900000         CONSTANT HEAD       1
      34       1      17     180       1.900000         CONSTANT HEAD       1
      35       1      18       1       1.900000         CONSTANT HEAD       1
      36       1      18     180       1.900000         CONSTANT HEAD       1
      37       1      19       1       1.900000         CONSTANT HEAD       1
      38       1      19     180       1.900000         CONSTANT HEAD       1
      39       1      20       1       1.900000         CONSTANT HEAD       1
      40       1      20     180       1.900000         CONSTANT HEAD       1
      41       1      21       1       1.900000         CONSTANT HEAD       1
      42       1      21     180       1.900000         CONSTANT HEAD       1
      43       1      22       1       1.900000         CONSTANT HEAD       1
      44       1      22     180       1.900000         CONSTANT HEAD       1
      45       1      23       1       1.900000         CONSTANT HEAD       1
      46       1      23     180       1.900000         CONSTANT HEAD       1
      47       1      24       1       1.900000         CONSTANT HEAD       1
      48       1      24     180       1.900000         CONSTANT HEAD       1
      49       1      25       1       1.900000         CONSTANT HEAD       1
      50       1      25     180       1.900000         CONSTANT HEAD       1
      51       1      26       1       1.900000         CONSTANT HEAD       1
      52       1      26     180       1.900000         CONSTANT HEAD       1
      53       1      27       1       1.900000         CONSTANT HEAD       1
      54       1      27     180       1.900000         CONSTANT HEAD       1
      55       1      28       1       1.900000         CONSTANT HEAD       1
      56       1      28     180       1.900000         CONSTANT HEAD       1
      57       1      29       1       1.900000         CONSTANT HEAD       1
      58       1      29     180       1.900000         CONSTANT HEAD       1
      59       1      30       1       1.900000         CONSTANT HEAD       1
      60       1      30     180       1.900000         CONSTANT HEAD       1
      61       1      31       1       1.900000         CONSTANT HEAD       1
      62       1      31     180       1.900000         CONSTANT HEAD       1
      63       1      32       1       1.900000         CONSTANT HEAD       1
      64       1      32     180       1.900000         CONSTANT HEAD       1
      65       1      33       1       1.900000         CONSTANT HEAD       1
      66       1      33     180       1.900000         CONSTANT HEAD       1
      67       1      34       1       1.900000         CONSTANT HEAD       1
      68       1      34     180       1.900000         CONSTANT HEAD       1
      69       1      35       1       1.900000         CONSTANT HEAD       1
      70       1      35     180       1.900000         CONSTANT HEAD       1
      71       1      36       1       1.900000         CONSTANT HEAD       1
      72       1      36     180       1.900000         CONSTANT HEAD       1
      73       1      37       1       1.900000         CONSTANT HEAD       1
      74       1      37     180       1.900000         CONSTANT HEAD       1
      75       1      38       1       1.900000         CONSTANT HEAD       1
      76       1      38     180       1.900000         CONSTANT HEAD       1
      77       1      39       1       1.900000         CONSTANT HEAD       1
      78       1      39     180       1.900000         CONSTANT HEAD       1
      79       1      40       1       1.900000         CONSTANT HEAD       1
      80       1      40     180       1.900000         CONSTANT HEAD       1
      81       1      41       1       1.900000         CONSTANT HEAD       1
      82       1      41     180       1.900000         CONSTANT HEAD       1
      83       1      42       1       1.900000         CONSTANT HEAD       1
      84       1      42     180       1.900000         CONSTANT HEAD       1
      85       1      43       1       1.900000         CONSTANT HEAD       1
      86       1      43     180       1.900000         CONSTANT HEAD       1
      87       1      44       1       1.900000         CONSTANT HEAD       1
      88       1      44     180       1.900000         CONSTANT HEAD       1
      89       1      45       1       1.900000         CONSTANT HEAD       1
      90       1      45     180       1.900000         CONSTANT HEAD       1
      91       1      46       1       1.900000         CONSTANT HEAD       1
      92       1      46     180       1.900000         CONSTANT HEAD       1
      93       1      47       1       1.900000         CONSTANT HEAD       1
      94       1      47     180       1.900000         CONSTANT HEAD       1
      95       1      48       1       1.900000         CONSTANT HEAD       1
      96       1      48     180       1.900000         CONSTANT HEAD       1
      97       1      49       1       1.900000         CONSTANT HEAD       1
      98       1      49     180       1.900000         CONSTANT HEAD       1
      99       1      50       1       1.900000         CONSTANT HEAD       1
     100       1      50     180       1.900000         CONSTANT HEAD       1
     101       1      51       1       1.900000         CONSTANT HEAD       1
     102       1      51     180       1.900000         CONSTANT HEAD       1
     103       1      52       1       1.900000         CONSTANT HEAD       1
     104       1      52     180       1.900000         CONSTANT HEAD       1
     105       1      53       1       1.900000         CONSTANT HEAD       1
     106       1      53     180       1.900000         CONSTANT HEAD       1
     107       1      54       1       1.900000         CONSTANT HEAD       1
     108       1      54     180       1.900000         CONSTANT HEAD       1
     109       1      55       1       1.900000         CONSTANT HEAD       1
     110       1      55     180       1.900000         CONSTANT HEAD       1
     111       1      56       1       1.900000         CONSTANT HEAD       1
     112       1      56     180       1.900000         CONSTANT HEAD       1
     113       1      57       1       1.900000         CONSTANT HEAD       1
     114       1      57     180       1.900000         CONSTANT HEAD       1
     115       1      58       1       1.900000         CONSTANT HEAD       1
     116       1      58     180       1.900000         CONSTANT HEAD       1
     117       1      59       1       1.900000         CONSTANT HEAD       1
     118       1      59     180       1.900000         CONSTANT HEAD       1
     119       1      60       1       1.900000         CONSTANT HEAD       1
     120       1      60     180       1.900000         CONSTANT HEAD       1
     121       1      61       1       1.900000         CONSTANT HEAD       1
     122       1      61     180       1.900000         CONSTANT HEAD       1
     123       1      62       1       1.900000         CONSTANT HEAD       1
     124       1      62     180       1.900000         CONSTANT HEAD       1
     125       1      63       1       1.900000         CONSTANT HEAD       1
     126       1      63     180       1.900000         CONSTANT HEAD       1
     127       1      64       1       1.900000         CONSTANT HEAD       1
     128       1      64     180       1.900000         CONSTANT HEAD       1
     129       1      65       1       1.900000         CONSTANT HEAD       1
     130       1      65     180       1.900000         CONSTANT HEAD       1
     131       1      66       1       1.900000         CONSTANT HEAD       1
     132       1      66     180       1.900000         CONSTANT HEAD       1
     133       1      67       1       1.900000         CONSTANT HEAD       1
     134       1      67     180       1.900000         CONSTANT HEAD       1
     135       1      68       1       1.900000         CONSTANT HEAD       1
     136       1      68     180       1.900000         CONSTANT HEAD       1
     137       1      69       1       1.900000         CONSTANT HEAD       1
     138       1      69     180       1.900000         CONSTANT HEAD       1
     139       1      70       1       1.900000         CONSTANT HEAD       1
     140       1      70     180       1.900000         CONSTANT HEAD       1
     141       1      71       1       1.900000         CONSTANT HEAD       1
     142       1      71     180       1.900000         CONSTANT HEAD       1
     143       1      72       1       1.900000         CONSTANT HEAD       1
     144       1      72     180       1.900000         CONSTANT HEAD       1
     145       1      73       1       1.900000         CONSTANT HEAD       1
     146       1      73     180       1.900000         CONSTANT HEAD       1
     147       1      74       1       1.900000         CONSTANT HEAD       1
     148       1      74     180       1.900000         CONSTANT HEAD       1
     149       1      75       1       1.900000         CONSTANT HEAD       1
     150       1      75     180       1.900000         CONSTANT HEAD       1
     151       1      76       1       1.900000         CONSTANT HEAD       1
     152       1      76     180       1.900000         CONSTANT HEAD       1
     153       1      77       1       1.900000         CONSTANT HEAD       1
     154       1      77     180       1.900000         CONSTANT HEAD       1
     155       1      78       1       1.900000         CONSTANT HEAD       1
     156       1      78     180       1.900000         CONSTANT HEAD       1
     157       1      79       1       1.900000         CONSTANT HEAD       1
     158       1      79     180       1.900000         CONSTANT HEAD       1
     159       1      80       1       1.900000         CONSTANT HEAD       1
     160       1      80     180       1.900000         CONSTANT HEAD       1
     161       1      81       1       1.900000         CONSTANT HEAD       1
     162       1      81     180       1.900000         CONSTANT HEAD       1
     163       1      82       1       1.900000         CONSTANT HEAD       1
     164       1      82     180       1.900000         CONSTANT HEAD       1
     165       1      83       1       1.900000         CONSTANT HEAD       1
     166       1      83     180       1.900000         CONSTANT HEAD       1
     167       1      84       1       1.900000         CONSTANT HEAD       1
     168       1      84     180       1.900000         CONSTANT HEAD       1
     169       1      85       1       1.900000         CONSTANT HEAD       1
     170       1      85     180       1.900000         CONSTANT HEAD       1
     171       1      86       1       1.900000         CONSTANT HEAD       1
     172       1      86     180       1.900000         CONSTANT HEAD       1
     173       1      87       1       1.900000         CONSTANT HEAD       1
     174       1      87     180       1.900000         CONSTANT HEAD       1
     175       1      88       1       1.900000         CONSTANT HEAD       1
     176       1      88     180       1.900000         CONSTANT HEAD       1
     177       1      89       1       1.900000         CONSTANT HEAD       1
     178       1      89     180       1.900000         CONSTANT HEAD       1
     179       1      90       1       1.900000         CONSTANT HEAD       1
     180       1      90     180       1.900000         CONSTANT HEAD       1
     181       1      91       1       1.900000         CONSTANT HEAD       1
     182       1      91     180       1.900000         CONSTANT HEAD       1
     183       1      92       1       1.900000         CONSTANT HEAD       1
     184       1      92     180       1.900000         CONSTANT HEAD       1
     185       1      93       1       1.900000         CONSTANT HEAD       1
     186       1      93     180       1.900000         CONSTANT HEAD       1
     187       1      94       1       1.900000         CONSTANT HEAD       1
     188       1      94     180       1.900000         CONSTANT HEAD       1
     189       1      95       1       1.900000         CONSTANT HEAD       1
     190       1      95     180       1.900000         CONSTANT HEAD       1
     191       1      96       1       1.900000         CONSTANT HEAD       1
     192       1      96     180       1.900000         CONSTANT HEAD       1
     193       1      97       1       1.900000         CONSTANT HEAD       1
     194       1      97     180       1.900000         CONSTANT HEAD       1
     195       1      98       1       1.900000         CONSTANT HEAD       1
     196       1      98     180       1.900000         CONSTANT HEAD       1
     197       1      99       1       1.900000         CONSTANT HEAD       1
     198       1      99     180       1.900000         CONSTANT HEAD       1
     199       1     100       1       1.900000         CONSTANT HEAD       1
     200       1     100     180       1.900000         CONSTANT HEAD       1
     201       1     101       1       1.900000         CONSTANT HEAD       1
     202       1     101     180       1.900000         CONSTANT HEAD       1
     203       1     102       1       1.900000         CONSTANT HEAD       1
     204       1     102     180       1.900000         CONSTANT HEAD       1
     205       1     103       1       1.900000         CONSTANT HEAD       1
     206       1     103     180       1.900000         CONSTANT HEAD       1
     207       1     104       1       1.900000         CONSTANT HEAD       1
     208       1     104     180       1.900000         CONSTANT HEAD       1
     209       1     105       1       1.900000         CONSTANT HEAD       1
     210       1     105     180       1.900000         CONSTANT HEAD       1
     211       1     106       1       1.900000         CONSTANT HEAD       1
     212       1     106     180       1.900000         CONSTANT HEAD       1
     213       1     107       1       1.900000         CONSTANT HEAD       1
     214       1     107     180       1.900000         CONSTANT HEAD       1
     215       1     108       1       1.900000         CONSTANT HEAD       1
     216       1     108     180       1.900000         CONSTANT HEAD       1
     217       1     109       1       1.900000         CONSTANT HEAD       1
     218       1     109     180       1.900000         CONSTANT HEAD       1
     219       1     110       1       1.900000         CONSTANT HEAD       1
     220       1     110     180       1.900000         CONSTANT HEAD       1
     221       1     111       1       1.900000         CONSTANT HEAD       1
     222       1     111     180       1.900000         CONSTANT HEAD       1
     223       1     112       1       1.900000         CONSTANT HEAD       1
     224       1     112     180       1.900000         CONSTANT HEAD       1
     225       1     113       1       1.900000         CONSTANT HEAD       1
     226       1     113     180       1.900000         CONSTANT HEAD       1
     227       1     114       1       1.900000         CONSTANT HEAD       1
     228       1     114     180       1.900000         CONSTANT HEAD       1
     229       1     115       1       1.900000         CONSTANT HEAD       1
     230       1     115     180       1.900000         CONSTANT HEAD       1
     231       1     116       1       1.900000         CONSTANT HEAD       1
     232       1     116     180       1.900000         CONSTANT HEAD       1
     233       1     117       1       1.900000         CONSTANT HEAD       1
     234       1     117     180       1.900000         CONSTANT HEAD       1
     235       1     118       1       1.900000         CONSTANT HEAD       1
     236       1     118     180       1.900000         CONSTANT HEAD       1
     237       1     119       1       1.900000         CONSTANT HEAD       1
     238       1     119     180       1.900000         CONSTANT HEAD       1
     239       1     120       1       1.900000         CONSTANT HEAD       1
     240       1     120     180       1.900000         CONSTANT HEAD       1
     241       1     121       1       1.900000         CONSTANT HEAD       1
     242       1     121     180       1.900000         CONSTANT HEAD       1
     243       1     122       1       1.900000         CONSTANT HEAD       1
     244       1     122     180       1.900000         CONSTANT HEAD       1
     245       1     123       1       1.900000         CONSTANT HEAD       1
     246       1     123     180       1.900000         CONSTANT HEAD       1
     247       1     124       1       1.900000         CONSTANT HEAD       1
     248       1     124     180       1.900000         CONSTANT HEAD       1
     249       1     125       1       1.900000         CONSTANT HEAD       1
     250       1     125     180       1.900000         CONSTANT HEAD       1
     251       1     126       1       1.900000         CONSTANT HEAD       1
     252       1     126     180       1.900000         CONSTANT HEAD       1
     253       1     127       1       1.900000         CONSTANT HEAD       1
     254       1     127     180       1.900000         CONSTANT HEAD       1
     255       1     128       1       1.900000         CONSTANT HEAD       1
     256       1     128     180       1.900000         CONSTANT HEAD       1
     257       1     129       1       1.900000         CONSTANT HEAD       1
     258       1     129     180       1.900000         CONSTANT HEAD       1
     259       1     130       1       1.900000         CONSTANT HEAD       1
     260       1     130     180       1.900000         CONSTANT HEAD       1
     261       1     131       1       1.900000         CONSTANT HEAD       1
     262       1     131     180       1.900000         CONSTANT HEAD       1
     263       1     132       1       1.900000         CONSTANT HEAD       1
     264       1     132     180       1.900000         CONSTANT HEAD       1
     265       1     133       1       1.900000         CONSTANT HEAD       1
     266       1     133     180       1.900000         CONSTANT HEAD       1
     267       1     134       1       1.900000         CONSTANT HEAD       1
     268       1     134     180       1.900000         CONSTANT HEAD       1
     269       1     135       1       1.900000         CONSTANT HEAD       1
     270       1     135     180       1.900000         CONSTANT HEAD       1
     271       1     136       1       1.900000         CONSTANT HEAD       1
     272       1     136     180       1.900000         CONSTANT HEAD       1
     273       1     137       1       1.900000         CONSTANT HEAD       1
     274       1     137     180       1.900000         CONSTANT HEAD       1
     275       1     138       1       1.900000         CONSTANT HEAD       1
     276       1     138     180       1.900000         CONSTANT HEAD       1
     277       1     139       1       1.900000         CONSTANT HEAD       1
     278       1     139     180       1.900000         CONSTANT HEAD       1
     279       1     140       1       1.900000         CONSTANT HEAD       1
     280       1     140     180       1.900000         CONSTANT HEAD       1
     281       1     141       1       1.900000         CONSTANT HEAD       1
     282       1     141     180       1.900000         CONSTANT HEAD       1
     283       1     142       1       1.900000         CONSTANT HEAD       1
     284       1     142     180       1.900000         CONSTANT HEAD       1
     285       1     143       1       1.900000         CONSTANT HEAD       1
     286       1     143     180       1.900000         CONSTANT HEAD       1
     287       1     144       1       1.900000         CONSTANT HEAD       1
     288       1     144     180       1.900000         CONSTANT HEAD       1
     289       1     145       1       1.900000         CONSTANT HEAD       1
     290       1     145     180       1.900000         CONSTANT HEAD       1
     291       1     146       1       1.900000         CONSTANT HEAD       1
     292       1     146     180       1.900000         CONSTANT HEAD       1
     293       1     147       1       1.900000         CONSTANT HEAD       1
     294       1     147     180       1.900000         CONSTANT HEAD       1
     295       1     148       1       1.900000         CONSTANT HEAD       1
     296       1     148     180       1.900000         CONSTANT HEAD       1
     297       1     149       1       1.900000         CONSTANT HEAD       1
     298       1     149     180       1.900000         CONSTANT HEAD       1
     299       1     150       1       1.900000         CONSTANT HEAD       1
     300       1     150     180       1.900000         CONSTANT HEAD       1
     301       1     151       1       1.900000         CONSTANT HEAD       1
     302       1     151     180       1.900000         CONSTANT HEAD       1
     303       1     152       1       1.900000         CONSTANT HEAD       1
     304       1     152     180       1.900000         CONSTANT HEAD       1
     305       1     153       1       1.900000         CONSTANT HEAD       1
     306       1     153     180       1.900000         CONSTANT HEAD       1
     307       1     154       1       1.900000         CONSTANT HEAD       1
     308       1     154     180       1.900000         CONSTANT HEAD       1
     309       1     155       1       1.900000         CONSTANT HEAD       1
     310       1     155     180       1.900000         CONSTANT HEAD       1
     311       1     156       1       1.900000         CONSTANT HEAD       1
     312       1     156     180       1.900000         CONSTANT HEAD       1
     313       1     157       1       1.900000         CONSTANT HEAD       1
     314       1     157     180       1.900000         CONSTANT HEAD       1
     315       1     158       1       1.900000         CONSTANT HEAD       1
     316       1     158     180       1.900000         CONSTANT HEAD       1
     317       1     159       1       1.900000         CONSTANT HEAD       1
     318       1     159     180       1.900000         CONSTANT HEAD       1
     319       1     160       1       1.900000         CONSTANT HEAD       1
     320       1     160     180       1.900000         CONSTANT HEAD       1
     321       1     161       1       1.900000         CONSTANT HEAD       1
     322       1     161     180       1.900000         CONSTANT HEAD       1
     323       1     162       1       1.900000         CONSTANT HEAD       1
     324       1     162     180       1.900000         CONSTANT HEAD       1
     325       1     163       1       1.900000         CONSTANT HEAD       1
     326       1     163     180       1.900000         CONSTANT HEAD       1
     327       1     164       1       1.900000         CONSTANT HEAD       1
     328       1     164     180       1.900000         CONSTANT HEAD       1
     329       1     165       1       1.900000         CONSTANT HEAD       1
     330       1     165     180       1.900000         CONSTANT HEAD       1
     331       1     166       1       1.900000         CONSTANT HEAD       1
     332       1     166     180       1.900000         CONSTANT HEAD       1
     333       1     167       1       1.900000         CONSTANT HEAD       1
     334       1     167     180       1.900000         CONSTANT HEAD       1
     335       1     168       1       1.900000         CONSTANT HEAD       1
     336       1     168     180       1.900000         CONSTANT HEAD       1
     337       1     169       1       1.900000         CONSTANT HEAD       1
     338       1     169     180       1.900000         CONSTANT HEAD       1
     339       1     170       1       1.900000         CONSTANT HEAD       1
     340       1     170     180       1.900000         CONSTANT HEAD       1
     341       1     171       1       1.900000         CONSTANT HEAD       1
     342       1     171     180       1.900000         CONSTANT HEAD       1
     343       1     172       1       1.900000         CONSTANT HEAD       1
     344       1     172     180       1.900000         CONSTANT HEAD       1
     345       1     173       1       1.900000         CONSTANT HEAD       1
     346       1     173     180       1.900000         CONSTANT HEAD       1
     347       1     174       1       1.900000         CONSTANT HEAD       1
     348       1     174     180       1.900000         CONSTANT HEAD       1
     349       1     175       1       1.900000         CONSTANT HEAD       1
     350       1     175     180       1.900000         CONSTANT HEAD       1
     351       1     176       1       1.900000         CONSTANT HEAD       1
     352       1     176     180       1.900000         CONSTANT HEAD       1
     353       1     177       1       1.900000         CONSTANT HEAD       1
     354       1     177     180       1.900000         CONSTANT HEAD       1
     355       1     178       1       1.900000         CONSTANT HEAD       1
     356       1     178     180       1.900000         CONSTANT HEAD       1
     357       1     179       1       1.900000         CONSTANT HEAD       1
     358       1     179     180       1.900000         CONSTANT HEAD       1
     359       1     180       1       1.900000         CONSTANT HEAD       1
     360       1     180     180       1.900000         CONSTANT HEAD       1
     361       1      91      91      0.1500000         WELL                1


                                          ================================================
                                                         TIME STEP NO.  001
                                          ================================================

 FROM TIME =   30.000     TO    60.000    


                    "THKSAT          " FLOW TERMS FOR TIME STEP  1, STRESS PERIOD  2 READ UNFORMATTED ON UNIT 10
                    --------------------------------------------------------------------------------------------

                    "QXX             " FLOW TERMS FOR TIME STEP  1, STRESS PERIOD  2 READ UNFORMATTED ON UNIT 10
                    --------------------------------------------------------------------------------------------

                    "QYY             " FLOW TERMS FOR TIME STEP  1, STRESS PERIOD  2 READ UNFORMATTED ON UNIT 10
                    --------------------------------------------------------------------------------------------

                    "STO             " FLOW TERMS FOR TIME STEP  1, STRESS PERIOD  2 READ UNFORMATTED ON UNIT 10
                    --------------------------------------------------------------------------------------------

 MAXIMUM STEPSIZE DURING WHICH ANY PARTICLE CANNOT MOVE MORE THAN ONE CELL
 =  2.163    (WHEN MIN. R.F.=1)  AT K=   1, I=  91, J=  90

 MAXIMUM STEPSIZE WHICH MEETS STABILITY CRITERION OF THE ADVECTION TERM
 (FOR PURE FINITE-DIFFERENCE OPTION, MIXELM=0) 
 = 0.7862    (WHEN MIN. R.F.=1)  AT K=   1, I=  91, J=  91

                    "CNH             " FLOW TERMS FOR TIME STEP  1, STRESS PERIOD  2 READ UNFORMATTED ON UNIT 10
                    --------------------------------------------------------------------------------------------

                    "WEL             " FLOW TERMS FOR TIME STEP  1, STRESS PERIOD  2 READ UNFORMATTED ON UNIT 10
                    --------------------------------------------------------------------------------------------


 TOTAL NUMBER OF POINT SOURCES/SINKS PRESENT IN THE FLOW MODEL =   361

 MAXIMUM STEPSIZE WHICH MEETS STABILITY CRITERION OF THE SINK & SOURCE TERM
 = 0.3932    (WHEN MIN. R.F.=1)  AT K=   1, I=  91, J=  91

 MAXIMUM STEPSIZE WHICH MEETS STABILITY CRITERION OF THE DISPERSION TERM
 = 0.3932    (WHEN MIN. R.F.=1)  AT K=   1, I=  91, J=  91


     1 CALLS TO GCG PACKAGE FOR TRANSPORT TIME STEP     1 IN FLOW TIME STEP     1 STRESS PERIOD     2
      9 TOTAL ITERATIONS
  MAXIMUM CONCENTRATION CHANGES FOR EACH ITERATION:
  MAX. CHANGE LAYER,ROW,COL MAX. CHANGE LAYER,ROW,COL MAX. CHANGE LAYER,ROW,COL MAX. CHANGE LAYER,ROW,COL MAX. CHANGE LAYER,ROW,COL
 ------------------------------------------------------------------------------------------------------------------------------------
   0.2760     (  1, 94, 89)  0.1288     (  1, 94, 90)  0.3864E-01 (  1, 95, 88)  0.9788E-02 (  1, 96, 87)  0.1873E-02 (  1, 97, 85)
   0.1026E-02 (  1, 98, 84)  0.5151E-03 (  1, 98, 85)  0.1681E-04 (  1,100, 84)  0.1550E-05 (  1, 84,101)



 >>>>>>>>>>>>>>>>>>>>>>>>>>>>>>>>>>>>>>>>>>>>>>>>>>>>>>>FOR COMPONENT NO. 01<<<<<<<<<<<<<<<<<<<<<<<<<<<<<<<<<<<<<<<<<<<<<<<<<<<<<<<


                                            -------------------------------------------
                                                      TRANSPORT STEP NO.    1
                                            -------------------------------------------

 TOTAL ELAPSED TIME SINCE BEGINNING OF SIMULATION =   60.00000    D   
 .....................................................................

                     CUMULATIVE MASS BUDGETS AT END OF TRANSPORT STEP    1, TIME STEP    1, STRESS PERIOD    2
                     -----------------------------------------------------------------------------------------

                                                             IN                           OUT
                                                      ----------------             ----------------
                               CONSTANT CONCENTRATION:    0.000000                    0.000000    
                                        CONSTANT HEAD:    784807.0                   -785783.0    
                                                WELLS:    11641.43                    0.000000    
                               MASS STOR (FLOW MODEL):    751725.2                   -898289.4    
                                MASS STORAGE (SOLUTE):    136029.1                   -198.1147    
                            ---------------------------------------------------------------------------
                                              [TOTAL]:    1684203.     KG            -1684271.     KG  

                                                          NET (IN - OUT):   -67.87500    
                                                   DISCREPANCY (PERCENT):  -0.4030015E-02


                                   ++++++++++++++++++++++++++++++++++++++++++++++++++++++++++++++
                                                       STRESS PERIOD NO.  003
                                   ++++++++++++++++++++++++++++++++++++++++++++++++++++++++++++++


 LENGTH OF CURRENT STRESS PERIOD =   30.00000    
 NUMBER OF TIME STEPS FOR CURRENT STRESS PERIOD =    1
 TIME STEP MULTIPLIER USED IN FLOW SOLUTION =   1.000000    

 ***Type of Transport Simulation is TRANSIENT

 USER-SPECIFIED TRANSPORT STEPSIZE =   30.00000    D   
 MAXIMUM NUMBER OF TRANSPORT STEPS ALLOWED  IN ONE FLOW TIME STEP =     50000
 MULTIPLIER FOR SUCCESSIVE TRANSPORT STEPS  [USED IN IMPLICIT SCHEMES] =     1.000
 MAXIMUM TRANSPORT STEP SIZE  [USED IN IMPLICIT SCHEMES] =   0.000000    D   

       NO    LAYER   ROW   COLUMN   CONCENTRATION       TYPE            COMPONENT
       1       1       1       1       1.900000         CONSTANT HEAD       1
       2       1       1     180       1.900000         CONSTANT HEAD       1
       3       1       2       1       1.900000         CONSTANT HEAD       1
       4       1       2     180       1.900000         CONSTANT HEAD       1
       5       1       3       1       1.900000         CONSTANT HEAD       1
       6       1       3     180       1.900000         CONSTANT HEAD       1
       7       1       4       1       1.900000         CONSTANT HEAD       1
       8       1       4     180       1.900000         CONSTANT HEAD       1
       9       1       5       1       1.900000         CONSTANT HEAD       1
      10       1       5     180       1.900000         CONSTANT HEAD       1
      11       1       6       1       1.900000         CONSTANT HEAD       1
      12       1       6     180       1.900000         CONSTANT HEAD       1
      13       1       7       1       1.900000         CONSTANT HEAD       1
      14       1       7     180       1.900000         CONSTANT HEAD       1
      15       1       8       1       1.900000         CONSTANT HEAD       1
      16       1       8     180       1.900000         CONSTANT HEAD       1
      17       1       9       1       1.900000         CONSTANT HEAD       1
      18       1       9     180       1.900000         CONSTANT HEAD       1
      19       1      10       1       1.900000         CONSTANT HEAD       1
      20       1      10     180       1.900000         CONSTANT HEAD       1
      21       1      11       1       1.900000         CONSTANT HEAD       1
      22       1      11     180       1.900000         CONSTANT HEAD       1
      23       1      12       1       1.900000         CONSTANT HEAD       1
      24       1      12     180       1.900000         CONSTANT HEAD       1
      25       1      13       1       1.900000         CONSTANT HEAD       1
      26       1      13     180       1.900000         CONSTANT HEAD       1
      27       1      14       1       1.900000         CONSTANT HEAD       1
      28       1      14     180       1.900000         CONSTANT HEAD       1
      29       1      15       1       1.900000         CONSTANT HEAD       1
      30       1      15     180       1.900000         CONSTANT HEAD       1
      31       1      16       1       1.900000         CONSTANT HEAD       1
      32       1      16     180       1.900000         CONSTANT HEAD       1
      33       1      17       1       1.900000         CONSTANT HEAD       1
      34       1      17     180       1.900000         CONSTANT HEAD       1
      35       1      18       1       1.900000         CONSTANT HEAD       1
      36       1      18     180       1.900000         CONSTANT HEAD       1
      37       1      19       1       1.900000         CONSTANT HEAD       1
      38       1      19     180       1.900000         CONSTANT HEAD       1
      39       1      20       1       1.900000         CONSTANT HEAD       1
      40       1      20     180       1.900000         CONSTANT HEAD       1
      41       1      21       1       1.900000         CONSTANT HEAD       1
      42       1      21     180       1.900000         CONSTANT HEAD       1
      43       1      22       1       1.900000         CONSTANT HEAD       1
      44       1      22     180       1.900000         CONSTANT HEAD       1
      45       1      23       1       1.900000         CONSTANT HEAD       1
      46       1      23     180       1.900000         CONSTANT HEAD       1
      47       1      24       1       1.900000         CONSTANT HEAD       1
      48       1      24     180       1.900000         CONSTANT HEAD       1
      49       1      25       1       1.900000         CONSTANT HEAD       1
      50       1      25     180       1.900000         CONSTANT HEAD       1
      51       1      26       1       1.900000         CONSTANT HEAD       1
      52       1      26     180       1.900000         CONSTANT HEAD       1
      53       1      27       1       1.900000         CONSTANT HEAD       1
      54       1      27     180       1.900000         CONSTANT HEAD       1
      55       1      28       1       1.900000         CONSTANT HEAD       1
      56       1      28     180       1.900000         CONSTANT HEAD       1
      57       1      29       1       1.900000         CONSTANT HEAD       1
      58       1      29     180       1.900000         CONSTANT HEAD       1
      59       1      30       1       1.900000         CONSTANT HEAD       1
      60       1      30     180       1.900000         CONSTANT HEAD       1
      61       1      31       1       1.900000         CONSTANT HEAD       1
      62       1      31     180       1.900000         CONSTANT HEAD       1
      63       1      32       1       1.900000         CONSTANT HEAD       1
      64       1      32     180       1.900000         CONSTANT HEAD       1
      65       1      33       1       1.900000         CONSTANT HEAD       1
      66       1      33     180       1.900000         CONSTANT HEAD       1
      67       1      34       1       1.900000         CONSTANT HEAD       1
      68       1      34     180       1.900000         CONSTANT HEAD       1
      69       1      35       1       1.900000         CONSTANT HEAD       1
      70       1      35     180       1.900000         CONSTANT HEAD       1
      71       1      36       1       1.900000         CONSTANT HEAD       1
      72       1      36     180       1.900000         CONSTANT HEAD       1
      73       1      37       1       1.900000         CONSTANT HEAD       1
      74       1      37     180       1.900000         CONSTANT HEAD       1
      75       1      38       1       1.900000         CONSTANT HEAD       1
      76       1      38     180       1.900000         CONSTANT HEAD       1
      77       1      39       1       1.900000         CONSTANT HEAD       1
      78       1      39     180       1.900000         CONSTANT HEAD       1
      79       1      40       1       1.900000         CONSTANT HEAD       1
      80       1      40     180       1.900000         CONSTANT HEAD       1
      81       1      41       1       1.900000         CONSTANT HEAD       1
      82       1      41     180       1.900000         CONSTANT HEAD       1
      83       1      42       1       1.900000         CONSTANT HEAD       1
      84       1      42     180       1.900000         CONSTANT HEAD       1
      85       1      43       1       1.900000         CONSTANT HEAD       1
      86       1      43     180       1.900000         CONSTANT HEAD       1
      87       1      44       1       1.900000         CONSTANT HEAD       1
      88       1      44     180       1.900000         CONSTANT HEAD       1
      89       1      45       1       1.900000         CONSTANT HEAD       1
      90       1      45     180       1.900000         CONSTANT HEAD       1
      91       1      46       1       1.900000         CONSTANT HEAD       1
      92       1      46     180       1.900000         CONSTANT HEAD       1
      93       1      47       1       1.900000         CONSTANT HEAD       1
      94       1      47     180       1.900000         CONSTANT HEAD       1
      95       1      48       1       1.900000         CONSTANT HEAD       1
      96       1      48     180       1.900000         CONSTANT HEAD       1
      97       1      49       1       1.900000         CONSTANT HEAD       1
      98       1      49     180       1.900000         CONSTANT HEAD       1
      99       1      50       1       1.900000         CONSTANT HEAD       1
     100       1      50     180       1.900000         CONSTANT HEAD       1
     101       1      51       1       1.900000         CONSTANT HEAD       1
     102       1      51     180       1.900000         CONSTANT HEAD       1
     103       1      52       1       1.900000         CONSTANT HEAD       1
     104       1      52     180       1.900000         CONSTANT HEAD       1
     105       1      53       1       1.900000         CONSTANT HEAD       1
     106       1      53     180       1.900000         CONSTANT HEAD       1
     107       1      54       1       1.900000         CONSTANT HEAD       1
     108       1      54     180       1.900000         CONSTANT HEAD       1
     109       1      55       1       1.900000         CONSTANT HEAD       1
     110       1      55     180       1.900000         CONSTANT HEAD       1
     111       1      56       1       1.900000         CONSTANT HEAD       1
     112       1      56     180       1.900000         CONSTANT HEAD       1
     113       1      57       1       1.900000         CONSTANT HEAD       1
     114       1      57     180       1.900000         CONSTANT HEAD       1
     115       1      58       1       1.900000         CONSTANT HEAD       1
     116       1      58     180       1.900000         CONSTANT HEAD       1
     117       1      59       1       1.900000         CONSTANT HEAD       1
     118       1      59     180       1.900000         CONSTANT HEAD       1
     119       1      60       1       1.900000         CONSTANT HEAD       1
     120       1      60     180       1.900000         CONSTANT HEAD       1
     121       1      61       1       1.900000         CONSTANT HEAD       1
     122       1      61     180       1.900000         CONSTANT HEAD       1
     123       1      62       1       1.900000         CONSTANT HEAD       1
     124       1      62     180       1.900000         CONSTANT HEAD       1
     125       1      63       1       1.900000         CONSTANT HEAD       1
     126       1      63     180       1.900000         CONSTANT HEAD       1
     127       1      64       1       1.900000         CONSTANT HEAD       1
     128       1      64     180       1.900000         CONSTANT HEAD       1
     129       1      65       1       1.900000         CONSTANT HEAD       1
     130       1      65     180       1.900000         CONSTANT HEAD       1
     131       1      66       1       1.900000         CONSTANT HEAD       1
     132       1      66     180       1.900000         CONSTANT HEAD       1
     133       1      67       1       1.900000         CONSTANT HEAD       1
     134       1      67     180       1.900000         CONSTANT HEAD       1
     135       1      68       1       1.900000         CONSTANT HEAD       1
     136       1      68     180       1.900000         CONSTANT HEAD       1
     137       1      69       1       1.900000         CONSTANT HEAD       1
     138       1      69     180       1.900000         CONSTANT HEAD       1
     139       1      70       1       1.900000         CONSTANT HEAD       1
     140       1      70     180       1.900000         CONSTANT HEAD       1
     141       1      71       1       1.900000         CONSTANT HEAD       1
     142       1      71     180       1.900000         CONSTANT HEAD       1
     143       1      72       1       1.900000         CONSTANT HEAD       1
     144       1      72     180       1.900000         CONSTANT HEAD       1
     145       1      73       1       1.900000         CONSTANT HEAD       1
     146       1      73     180       1.900000         CONSTANT HEAD       1
     147       1      74       1       1.900000         CONSTANT HEAD       1
     148       1      74     180       1.900000         CONSTANT HEAD       1
     149       1      75       1       1.900000         CONSTANT HEAD       1
     150       1      75     180       1.900000         CONSTANT HEAD       1
     151       1      76       1       1.900000         CONSTANT HEAD       1
     152       1      76     180       1.900000         CONSTANT HEAD       1
     153       1      77       1       1.900000         CONSTANT HEAD       1
     154       1      77     180       1.900000         CONSTANT HEAD       1
     155       1      78       1       1.900000         CONSTANT HEAD       1
     156       1      78     180       1.900000         CONSTANT HEAD       1
     157       1      79       1       1.900000         CONSTANT HEAD       1
     158       1      79     180       1.900000         CONSTANT HEAD       1
     159       1      80       1       1.900000         CONSTANT HEAD       1
     160       1      80     180       1.900000         CONSTANT HEAD       1
     161       1      81       1       1.900000         CONSTANT HEAD       1
     162       1      81     180       1.900000         CONSTANT HEAD       1
     163       1      82       1       1.900000         CONSTANT HEAD       1
     164       1      82     180       1.900000         CONSTANT HEAD       1
     165       1      83       1       1.900000         CONSTANT HEAD       1
     166       1      83     180       1.900000         CONSTANT HEAD       1
     167       1      84       1       1.900000         CONSTANT HEAD       1
     168       1      84     180       1.900000         CONSTANT HEAD       1
     169       1      85       1       1.900000         CONSTANT HEAD       1
     170       1      85     180       1.900000         CONSTANT HEAD       1
     171       1      86       1       1.900000         CONSTANT HEAD       1
     172       1      86     180       1.900000         CONSTANT HEAD       1
     173       1      87       1       1.900000         CONSTANT HEAD       1
     174       1      87     180       1.900000         CONSTANT HEAD       1
     175       1      88       1       1.900000         CONSTANT HEAD       1
     176       1      88     180       1.900000         CONSTANT HEAD       1
     177       1      89       1       1.900000         CONSTANT HEAD       1
     178       1      89     180       1.900000         CONSTANT HEAD       1
     179       1      90       1       1.900000         CONSTANT HEAD       1
     180       1      90     180       1.900000         CONSTANT HEAD       1
     181       1      91       1       1.900000         CONSTANT HEAD       1
     182       1      91     180       1.900000         CONSTANT HEAD       1
     183       1      92       1       1.900000         CONSTANT HEAD       1
     184       1      92     180       1.900000         CONSTANT HEAD       1
     185       1      93       1       1.900000         CONSTANT HEAD       1
     186       1      93     180       1.900000         CONSTANT HEAD       1
     187       1      94       1       1.900000         CONSTANT HEAD       1
     188       1      94     180       1.900000         CONSTANT HEAD       1
     189       1      95       1       1.900000         CONSTANT HEAD       1
     190       1      95     180       1.900000         CONSTANT HEAD       1
     191       1      96       1       1.900000         CONSTANT HEAD       1
     192       1      96     180       1.900000         CONSTANT HEAD       1
     193       1      97       1       1.900000         CONSTANT HEAD       1
     194       1      97     180       1.900000         CONSTANT HEAD       1
     195       1      98       1       1.900000         CONSTANT HEAD       1
     196       1      98     180       1.900000         CONSTANT HEAD       1
     197       1      99       1       1.900000         CONSTANT HEAD       1
     198       1      99     180       1.900000         CONSTANT HEAD       1
     199       1     100       1       1.900000         CONSTANT HEAD       1
     200       1     100     180       1.900000         CONSTANT HEAD       1
     201       1     101       1       1.900000         CONSTANT HEAD       1
     202       1     101     180       1.900000         CONSTANT HEAD       1
     203       1     102       1       1.900000         CONSTANT HEAD       1
     204       1     102     180       1.900000         CONSTANT HEAD       1
     205       1     103       1       1.900000         CONSTANT HEAD       1
     206       1     103     180       1.900000         CONSTANT HEAD       1
     207       1     104       1       1.900000         CONSTANT HEAD       1
     208       1     104     180       1.900000         CONSTANT HEAD       1
     209       1     105       1       1.900000         CONSTANT HEAD       1
     210       1     105     180       1.900000         CONSTANT HEAD       1
     211       1     106       1       1.900000         CONSTANT HEAD       1
     212       1     106     180       1.900000         CONSTANT HEAD       1
     213       1     107       1       1.900000         CONSTANT HEAD       1
     214       1     107     180       1.900000         CONSTANT HEAD       1
     215       1     108       1       1.900000         CONSTANT HEAD       1
     216       1     108     180       1.900000         CONSTANT HEAD       1
     217       1     109       1       1.900000         CONSTANT HEAD       1
     218       1     109     180       1.900000         CONSTANT HEAD       1
     219       1     110       1       1.900000         CONSTANT HEAD       1
     220       1     110     180       1.900000         CONSTANT HEAD       1
     221       1     111       1       1.900000         CONSTANT HEAD       1
     222       1     111     180       1.900000         CONSTANT HEAD       1
     223       1     112       1       1.900000         CONSTANT HEAD       1
     224       1     112     180       1.900000         CONSTANT HEAD       1
     225       1     113       1       1.900000         CONSTANT HEAD       1
     226       1     113     180       1.900000         CONSTANT HEAD       1
     227       1     114       1       1.900000         CONSTANT HEAD       1
     228       1     114     180       1.900000         CONSTANT HEAD       1
     229       1     115       1       1.900000         CONSTANT HEAD       1
     230       1     115     180       1.900000         CONSTANT HEAD       1
     231       1     116       1       1.900000         CONSTANT HEAD       1
     232       1     116     180       1.900000         CONSTANT HEAD       1
     233       1     117       1       1.900000         CONSTANT HEAD       1
     234       1     117     180       1.900000         CONSTANT HEAD       1
     235       1     118       1       1.900000         CONSTANT HEAD       1
     236       1     118     180       1.900000         CONSTANT HEAD       1
     237       1     119       1       1.900000         CONSTANT HEAD       1
     238       1     119     180       1.900000         CONSTANT HEAD       1
     239       1     120       1       1.900000         CONSTANT HEAD       1
     240       1     120     180       1.900000         CONSTANT HEAD       1
     241       1     121       1       1.900000         CONSTANT HEAD       1
     242       1     121     180       1.900000         CONSTANT HEAD       1
     243       1     122       1       1.900000         CONSTANT HEAD       1
     244       1     122     180       1.900000         CONSTANT HEAD       1
     245       1     123       1       1.900000         CONSTANT HEAD       1
     246       1     123     180       1.900000         CONSTANT HEAD       1
     247       1     124       1       1.900000         CONSTANT HEAD       1
     248       1     124     180       1.900000         CONSTANT HEAD       1
     249       1     125       1       1.900000         CONSTANT HEAD       1
     250       1     125     180       1.900000         CONSTANT HEAD       1
     251       1     126       1       1.900000         CONSTANT HEAD       1
     252       1     126     180       1.900000         CONSTANT HEAD       1
     253       1     127       1       1.900000         CONSTANT HEAD       1
     254       1     127     180       1.900000         CONSTANT HEAD       1
     255       1     128       1       1.900000         CONSTANT HEAD       1
     256       1     128     180       1.900000         CONSTANT HEAD       1
     257       1     129       1       1.900000         CONSTANT HEAD       1
     258       1     129     180       1.900000         CONSTANT HEAD       1
     259       1     130       1       1.900000         CONSTANT HEAD       1
     260       1     130     180       1.900000         CONSTANT HEAD       1
     261       1     131       1       1.900000         CONSTANT HEAD       1
     262       1     131     180       1.900000         CONSTANT HEAD       1
     263       1     132       1       1.900000         CONSTANT HEAD       1
     264       1     132     180       1.900000         CONSTANT HEAD       1
     265       1     133       1       1.900000         CONSTANT HEAD       1
     266       1     133     180       1.900000         CONSTANT HEAD       1
     267       1     134       1       1.900000         CONSTANT HEAD       1
     268       1     134     180       1.900000         CONSTANT HEAD       1
     269       1     135       1       1.900000         CONSTANT HEAD       1
     270       1     135     180       1.900000         CONSTANT HEAD       1
     271       1     136       1       1.900000         CONSTANT HEAD       1
     272       1     136     180       1.900000         CONSTANT HEAD       1
     273       1     137       1       1.900000         CONSTANT HEAD       1
     274       1     137     180       1.900000         CONSTANT HEAD       1
     275       1     138       1       1.900000         CONSTANT HEAD       1
     276       1     138     180       1.900000         CONSTANT HEAD       1
     277       1     139       1       1.900000         CONSTANT HEAD       1
     278       1     139     180       1.900000         CONSTANT HEAD       1
     279       1     140       1       1.900000         CONSTANT HEAD       1
     280       1     140     180       1.900000         CONSTANT HEAD       1
     281       1     141       1       1.900000         CONSTANT HEAD       1
     282       1     141     180       1.900000         CONSTANT HEAD       1
     283       1     142       1       1.900000         CONSTANT HEAD       1
     284       1     142     180       1.900000         CONSTANT HEAD       1
     285       1     143       1       1.900000         CONSTANT HEAD       1
     286       1     143     180       1.900000         CONSTANT HEAD       1
     287       1     144       1       1.900000         CONSTANT HEAD       1
     288       1     144     180       1.900000         CONSTANT HEAD       1
     289       1     145       1       1.900000         CONSTANT HEAD       1
     290       1     145     180       1.900000         CONSTANT HEAD       1
     291       1     146       1       1.900000         CONSTANT HEAD       1
     292       1     146     180       1.900000         CONSTANT HEAD       1
     293       1     147       1       1.900000         CONSTANT HEAD       1
     294       1     147     180       1.900000         CONSTANT HEAD       1
     295       1     148       1       1.900000         CONSTANT HEAD       1
     296       1     148     180       1.900000         CONSTANT HEAD       1
     297       1     149       1       1.900000         CONSTANT HEAD       1
     298       1     149     180       1.900000         CONSTANT HEAD       1
     299       1     150       1       1.900000         CONSTANT HEAD       1
     300       1     150     180       1.900000         CONSTANT HEAD       1
     301       1     151       1       1.900000         CONSTANT HEAD       1
     302       1     151     180       1.900000         CONSTANT HEAD       1
     303       1     152       1       1.900000         CONSTANT HEAD       1
     304       1     152     180       1.900000         CONSTANT HEAD       1
     305       1     153       1       1.900000         CONSTANT HEAD       1
     306       1     153     180       1.900000         CONSTANT HEAD       1
     307       1     154       1       1.900000         CONSTANT HEAD       1
     308       1     154     180       1.900000         CONSTANT HEAD       1
     309       1     155       1       1.900000         CONSTANT HEAD       1
     310       1     155     180       1.900000         CONSTANT HEAD       1
     311       1     156       1       1.900000         CONSTANT HEAD       1
     312       1     156     180       1.900000         CONSTANT HEAD       1
     313       1     157       1       1.900000         CONSTANT HEAD       1
     314       1     157     180       1.900000         CONSTANT HEAD       1
     315       1     158       1       1.900000         CONSTANT HEAD       1
     316       1     158     180       1.900000         CONSTANT HEAD       1
     317       1     159       1       1.900000         CONSTANT HEAD       1
     318       1     159     180       1.900000         CONSTANT HEAD       1
     319       1     160       1       1.900000         CONSTANT HEAD       1
     320       1     160     180       1.900000         CONSTANT HEAD       1
     321       1     161       1       1.900000         CONSTANT HEAD       1
     322       1     161     180       1.900000         CONSTANT HEAD       1
     323       1     162       1       1.900000         CONSTANT HEAD       1
     324       1     162     180       1.900000         CONSTANT HEAD       1
     325       1     163       1       1.900000         CONSTANT HEAD       1
     326       1     163     180       1.900000         CONSTANT HEAD       1
     327       1     164       1       1.900000         CONSTANT HEAD       1
     328       1     164     180       1.900000         CONSTANT HEAD       1
     329       1     165       1       1.900000         CONSTANT HEAD       1
     330       1     165     180       1.900000         CONSTANT HEAD       1
     331       1     166       1       1.900000         CONSTANT HEAD       1
     332       1     166     180       1.900000         CONSTANT HEAD       1
     333       1     167       1       1.900000         CONSTANT HEAD       1
     334       1     167     180       1.900000         CONSTANT HEAD       1
     335       1     168       1       1.900000         CONSTANT HEAD       1
     336       1     168     180       1.900000         CONSTANT HEAD       1
     337       1     169       1       1.900000         CONSTANT HEAD       1
     338       1     169     180       1.900000         CONSTANT HEAD       1
     339       1     170       1       1.900000         CONSTANT HEAD       1
     340       1     170     180       1.900000         CONSTANT HEAD       1
     341       1     171       1       1.900000         CONSTANT HEAD       1
     342       1     171     180       1.900000         CONSTANT HEAD       1
     343       1     172       1       1.900000         CONSTANT HEAD       1
     344       1     172     180       1.900000         CONSTANT HEAD       1
     345       1     173       1       1.900000         CONSTANT HEAD       1
     346       1     173     180       1.900000         CONSTANT HEAD       1
     347       1     174       1       1.900000         CONSTANT HEAD       1
     348       1     174     180       1.900000         CONSTANT HEAD       1
     349       1     175       1       1.900000         CONSTANT HEAD       1
     350       1     175     180       1.900000         CONSTANT HEAD       1
     351       1     176       1       1.900000         CONSTANT HEAD       1
     352       1     176     180       1.900000         CONSTANT HEAD       1
     353       1     177       1       1.900000         CONSTANT HEAD       1
     354       1     177     180       1.900000         CONSTANT HEAD       1
     355       1     178       1       1.900000         CONSTANT HEAD       1
     356       1     178     180       1.900000         CONSTANT HEAD       1
     357       1     179       1       1.900000         CONSTANT HEAD       1
     358       1     179     180       1.900000         CONSTANT HEAD       1
     359       1     180       1       1.900000         CONSTANT HEAD       1
     360       1     180     180       1.900000         CONSTANT HEAD       1
     361       1      91      91      0.1500000         WELL                1


                                          ================================================
                                                         TIME STEP NO.  001
                                          ================================================

 FROM TIME =   60.000     TO    90.000    


                    "THKSAT          " FLOW TERMS FOR TIME STEP  1, STRESS PERIOD  3 READ UNFORMATTED ON UNIT 10
                    --------------------------------------------------------------------------------------------

                    "QXX             " FLOW TERMS FOR TIME STEP  1, STRESS PERIOD  3 READ UNFORMATTED ON UNIT 10
                    --------------------------------------------------------------------------------------------

                    "QYY             " FLOW TERMS FOR TIME STEP  1, STRESS PERIOD  3 READ UNFORMATTED ON UNIT 10
                    --------------------------------------------------------------------------------------------

                    "STO             " FLOW TERMS FOR TIME STEP  1, STRESS PERIOD  3 READ UNFORMATTED ON UNIT 10
                    --------------------------------------------------------------------------------------------

 MAXIMUM STEPSIZE DURING WHICH ANY PARTICLE CANNOT MOVE MORE THAN ONE CELL
 =  1.076    (WHEN MIN. R.F.=1)  AT K=   1, I=  91, J=  90

 MAXIMUM STEPSIZE WHICH MEETS STABILITY CRITERION OF THE ADVECTION TERM
 (FOR PURE FINITE-DIFFERENCE OPTION, MIXELM=0) 
 = 0.3911    (WHEN MIN. R.F.=1)  AT K=   1, I=  91, J=  91

                    "CNH             " FLOW TERMS FOR TIME STEP  1, STRESS PERIOD  3 READ UNFORMATTED ON UNIT 10
                    --------------------------------------------------------------------------------------------

                    "WEL             " FLOW TERMS FOR TIME STEP  1, STRESS PERIOD  3 READ UNFORMATTED ON UNIT 10
                    --------------------------------------------------------------------------------------------


 TOTAL NUMBER OF POINT SOURCES/SINKS PRESENT IN THE FLOW MODEL =   361

 MAXIMUM STEPSIZE WHICH MEETS STABILITY CRITERION OF THE SINK & SOURCE TERM
 = 0.1956    (WHEN MIN. R.F.=1)  AT K=   1, I=  91, J=  91

 MAXIMUM STEPSIZE WHICH MEETS STABILITY CRITERION OF THE DISPERSION TERM
 = 0.1956    (WHEN MIN. R.F.=1)  AT K=   1, I=  91, J=  91


     1 CALLS TO GCG PACKAGE FOR TRANSPORT TIME STEP     1 IN FLOW TIME STEP     1 STRESS PERIOD     3
     11 TOTAL ITERATIONS
  MAXIMUM CONCENTRATION CHANGES FOR EACH ITERATION:
  MAX. CHANGE LAYER,ROW,COL MAX. CHANGE LAYER,ROW,COL MAX. CHANGE LAYER,ROW,COL MAX. CHANGE LAYER,ROW,COL MAX. CHANGE LAYER,ROW,COL
 ------------------------------------------------------------------------------------------------------------------------------------
   0.2963     (  1, 96, 87)  0.1205     (  1, 90, 94)  0.6613E-01 (  1, 96, 88)  0.2391E-01 (  1, 98, 86)  0.8002E-02 (  1, 99, 84)
   0.2368E-02 (  1,100, 83)  0.4517E-03 (  1,101, 81)  0.2029E-03 (  1,101, 81)  0.2288E-03 (  1,102, 80)  0.6551E-04 (  1,102, 81)
   0.9716E-05 (  1,103, 80)



 >>>>>>>>>>>>>>>>>>>>>>>>>>>>>>>>>>>>>>>>>>>>>>>>>>>>>>>FOR COMPONENT NO. 01<<<<<<<<<<<<<<<<<<<<<<<<<<<<<<<<<<<<<<<<<<<<<<<<<<<<<<<


                                            -------------------------------------------
                                                      TRANSPORT STEP NO.    1
                                            -------------------------------------------

 TOTAL ELAPSED TIME SINCE BEGINNING OF SIMULATION =   90.00000    D   
 .....................................................................

                     CUMULATIVE MASS BUDGETS AT END OF TRANSPORT STEP    1, TIME STEP    1, STRESS PERIOD    3
                     -----------------------------------------------------------------------------------------

                                                             IN                           OUT
                                                      ----------------             ----------------
                               CONSTANT CONCENTRATION:    0.000000                    0.000000    
                                        CONSTANT HEAD:    1083996.                   -1086764.    
                                                WELLS:    20614.15                    0.000000    
                               MASS STOR (FLOW MODEL):    1011488.                   -1269548.    
                                MASS STORAGE (SOLUTE):    240453.0                   -275.1983    
                            ---------------------------------------------------------------------------
                                              [TOTAL]:    2356551.     KG            -2356588.     KG  

                                                          NET (IN - OUT):   -36.50000    
                                                   DISCREPANCY (PERCENT):  -0.1548862E-02


                                   ++++++++++++++++++++++++++++++++++++++++++++++++++++++++++++++
                                                       STRESS PERIOD NO.  004
                                   ++++++++++++++++++++++++++++++++++++++++++++++++++++++++++++++


 LENGTH OF CURRENT STRESS PERIOD =   30.00000    
 NUMBER OF TIME STEPS FOR CURRENT STRESS PERIOD =    1
 TIME STEP MULTIPLIER USED IN FLOW SOLUTION =   1.000000    

 ***Type of Transport Simulation is TRANSIENT

 USER-SPECIFIED TRANSPORT STEPSIZE =   30.00000    D   
 MAXIMUM NUMBER OF TRANSPORT STEPS ALLOWED  IN ONE FLOW TIME STEP =     50000
 MULTIPLIER FOR SUCCESSIVE TRANSPORT STEPS  [USED IN IMPLICIT SCHEMES] =     1.000
 MAXIMUM TRANSPORT STEP SIZE  [USED IN IMPLICIT SCHEMES] =   0.000000    D   

       NO    LAYER   ROW   COLUMN   CONCENTRATION       TYPE            COMPONENT
       1       1       1       1       1.900000         CONSTANT HEAD       1
       2       1       1     180       1.900000         CONSTANT HEAD       1
       3       1       2       1       1.900000         CONSTANT HEAD       1
       4       1       2     180       1.900000         CONSTANT HEAD       1
       5       1       3       1       1.900000         CONSTANT HEAD       1
       6       1       3     180       1.900000         CONSTANT HEAD       1
       7       1       4       1       1.900000         CONSTANT HEAD       1
       8       1       4     180       1.900000         CONSTANT HEAD       1
       9       1       5       1       1.900000         CONSTANT HEAD       1
      10       1       5     180       1.900000         CONSTANT HEAD       1
      11       1       6       1       1.900000         CONSTANT HEAD       1
      12       1       6     180       1.900000         CONSTANT HEAD       1
      13       1       7       1       1.900000         CONSTANT HEAD       1
      14       1       7     180       1.900000         CONSTANT HEAD       1
      15       1       8       1       1.900000         CONSTANT HEAD       1
      16       1       8     180       1.900000         CONSTANT HEAD       1
      17       1       9       1       1.900000         CONSTANT HEAD       1
      18       1       9     180       1.900000         CONSTANT HEAD       1
      19       1      10       1       1.900000         CONSTANT HEAD       1
      20       1      10     180       1.900000         CONSTANT HEAD       1
      21       1      11       1       1.900000         CONSTANT HEAD       1
      22       1      11     180       1.900000         CONSTANT HEAD       1
      23       1      12       1       1.900000         CONSTANT HEAD       1
      24       1      12     180       1.900000         CONSTANT HEAD       1
      25       1      13       1       1.900000         CONSTANT HEAD       1
      26       1      13     180       1.900000         CONSTANT HEAD       1
      27       1      14       1       1.900000         CONSTANT HEAD       1
      28       1      14     180       1.900000         CONSTANT HEAD       1
      29       1      15       1       1.900000         CONSTANT HEAD       1
      30       1      15     180       1.900000         CONSTANT HEAD       1
      31       1      16       1       1.900000         CONSTANT HEAD       1
      32       1      16     180       1.900000         CONSTANT HEAD       1
      33       1      17       1       1.900000         CONSTANT HEAD       1
      34       1      17     180       1.900000         CONSTANT HEAD       1
      35       1      18       1       1.900000         CONSTANT HEAD       1
      36       1      18     180       1.900000         CONSTANT HEAD       1
      37       1      19       1       1.900000         CONSTANT HEAD       1
      38       1      19     180       1.900000         CONSTANT HEAD       1
      39       1      20       1       1.900000         CONSTANT HEAD       1
      40       1      20     180       1.900000         CONSTANT HEAD       1
      41       1      21       1       1.900000         CONSTANT HEAD       1
      42       1      21     180       1.900000         CONSTANT HEAD       1
      43       1      22       1       1.900000         CONSTANT HEAD       1
      44       1      22     180       1.900000         CONSTANT HEAD       1
      45       1      23       1       1.900000         CONSTANT HEAD       1
      46       1      23     180       1.900000         CONSTANT HEAD       1
      47       1      24       1       1.900000         CONSTANT HEAD       1
      48       1      24     180       1.900000         CONSTANT HEAD       1
      49       1      25       1       1.900000         CONSTANT HEAD       1
      50       1      25     180       1.900000         CONSTANT HEAD       1
      51       1      26       1       1.900000         CONSTANT HEAD       1
      52       1      26     180       1.900000         CONSTANT HEAD       1
      53       1      27       1       1.900000         CONSTANT HEAD       1
      54       1      27     180       1.900000         CONSTANT HEAD       1
      55       1      28       1       1.900000         CONSTANT HEAD       1
      56       1      28     180       1.900000         CONSTANT HEAD       1
      57       1      29       1       1.900000         CONSTANT HEAD       1
      58       1      29     180       1.900000         CONSTANT HEAD       1
      59       1      30       1       1.900000         CONSTANT HEAD       1
      60       1      30     180       1.900000         CONSTANT HEAD       1
      61       1      31       1       1.900000         CONSTANT HEAD       1
      62       1      31     180       1.900000         CONSTANT HEAD       1
      63       1      32       1       1.900000         CONSTANT HEAD       1
      64       1      32     180       1.900000         CONSTANT HEAD       1
      65       1      33       1       1.900000         CONSTANT HEAD       1
      66       1      33     180       1.900000         CONSTANT HEAD       1
      67       1      34       1       1.900000         CONSTANT HEAD       1
      68       1      34     180       1.900000         CONSTANT HEAD       1
      69       1      35       1       1.900000         CONSTANT HEAD       1
      70       1      35     180       1.900000         CONSTANT HEAD       1
      71       1      36       1       1.900000         CONSTANT HEAD       1
      72       1      36     180       1.900000         CONSTANT HEAD       1
      73       1      37       1       1.900000         CONSTANT HEAD       1
      74       1      37     180       1.900000         CONSTANT HEAD       1
      75       1      38       1       1.900000         CONSTANT HEAD       1
      76       1      38     180       1.900000         CONSTANT HEAD       1
      77       1      39       1       1.900000         CONSTANT HEAD       1
      78       1      39     180       1.900000         CONSTANT HEAD       1
      79       1      40       1       1.900000         CONSTANT HEAD       1
      80       1      40     180       1.900000         CONSTANT HEAD       1
      81       1      41       1       1.900000         CONSTANT HEAD       1
      82       1      41     180       1.900000         CONSTANT HEAD       1
      83       1      42       1       1.900000         CONSTANT HEAD       1
      84       1      42     180       1.900000         CONSTANT HEAD       1
      85       1      43       1       1.900000         CONSTANT HEAD       1
      86       1      43     180       1.900000         CONSTANT HEAD       1
      87       1      44       1       1.900000         CONSTANT HEAD       1
      88       1      44     180       1.900000         CONSTANT HEAD       1
      89       1      45       1       1.900000         CONSTANT HEAD       1
      90       1      45     180       1.900000         CONSTANT HEAD       1
      91       1      46       1       1.900000         CONSTANT HEAD       1
      92       1      46     180       1.900000         CONSTANT HEAD       1
      93       1      47       1       1.900000         CONSTANT HEAD       1
      94       1      47     180       1.900000         CONSTANT HEAD       1
      95       1      48       1       1.900000         CONSTANT HEAD       1
      96       1      48     180       1.900000         CONSTANT HEAD       1
      97       1      49       1       1.900000         CONSTANT HEAD       1
      98       1      49     180       1.900000         CONSTANT HEAD       1
      99       1      50       1       1.900000         CONSTANT HEAD       1
     100       1      50     180       1.900000         CONSTANT HEAD       1
     101       1      51       1       1.900000         CONSTANT HEAD       1
     102       1      51     180       1.900000         CONSTANT HEAD       1
     103       1      52       1       1.900000         CONSTANT HEAD       1
     104       1      52     180       1.900000         CONSTANT HEAD       1
     105       1      53       1       1.900000         CONSTANT HEAD       1
     106       1      53     180       1.900000         CONSTANT HEAD       1
     107       1      54       1       1.900000         CONSTANT HEAD       1
     108       1      54     180       1.900000         CONSTANT HEAD       1
     109       1      55       1       1.900000         CONSTANT HEAD       1
     110       1      55     180       1.900000         CONSTANT HEAD       1
     111       1      56       1       1.900000         CONSTANT HEAD       1
     112       1      56     180       1.900000         CONSTANT HEAD       1
     113       1      57       1       1.900000         CONSTANT HEAD       1
     114       1      57     180       1.900000         CONSTANT HEAD       1
     115       1      58       1       1.900000         CONSTANT HEAD       1
     116       1      58     180       1.900000         CONSTANT HEAD       1
     117       1      59       1       1.900000         CONSTANT HEAD       1
     118       1      59     180       1.900000         CONSTANT HEAD       1
     119       1      60       1       1.900000         CONSTANT HEAD       1
     120       1      60     180       1.900000         CONSTANT HEAD       1
     121       1      61       1       1.900000         CONSTANT HEAD       1
     122       1      61     180       1.900000         CONSTANT HEAD       1
     123       1      62       1       1.900000         CONSTANT HEAD       1
     124       1      62     180       1.900000         CONSTANT HEAD       1
     125       1      63       1       1.900000         CONSTANT HEAD       1
     126       1      63     180       1.900000         CONSTANT HEAD       1
     127       1      64       1       1.900000         CONSTANT HEAD       1
     128       1      64     180       1.900000         CONSTANT HEAD       1
     129       1      65       1       1.900000         CONSTANT HEAD       1
     130       1      65     180       1.900000         CONSTANT HEAD       1
     131       1      66       1       1.900000         CONSTANT HEAD       1
     132       1      66     180       1.900000         CONSTANT HEAD       1
     133       1      67       1       1.900000         CONSTANT HEAD       1
     134       1      67     180       1.900000         CONSTANT HEAD       1
     135       1      68       1       1.900000         CONSTANT HEAD       1
     136       1      68     180       1.900000         CONSTANT HEAD       1
     137       1      69       1       1.900000         CONSTANT HEAD       1
     138       1      69     180       1.900000         CONSTANT HEAD       1
     139       1      70       1       1.900000         CONSTANT HEAD       1
     140       1      70     180       1.900000         CONSTANT HEAD       1
     141       1      71       1       1.900000         CONSTANT HEAD       1
     142       1      71     180       1.900000         CONSTANT HEAD       1
     143       1      72       1       1.900000         CONSTANT HEAD       1
     144       1      72     180       1.900000         CONSTANT HEAD       1
     145       1      73       1       1.900000         CONSTANT HEAD       1
     146       1      73     180       1.900000         CONSTANT HEAD       1
     147       1      74       1       1.900000         CONSTANT HEAD       1
     148       1      74     180       1.900000         CONSTANT HEAD       1
     149       1      75       1       1.900000         CONSTANT HEAD       1
     150       1      75     180       1.900000         CONSTANT HEAD       1
     151       1      76       1       1.900000         CONSTANT HEAD       1
     152       1      76     180       1.900000         CONSTANT HEAD       1
     153       1      77       1       1.900000         CONSTANT HEAD       1
     154       1      77     180       1.900000         CONSTANT HEAD       1
     155       1      78       1       1.900000         CONSTANT HEAD       1
     156       1      78     180       1.900000         CONSTANT HEAD       1
     157       1      79       1       1.900000         CONSTANT HEAD       1
     158       1      79     180       1.900000         CONSTANT HEAD       1
     159       1      80       1       1.900000         CONSTANT HEAD       1
     160       1      80     180       1.900000         CONSTANT HEAD       1
     161       1      81       1       1.900000         CONSTANT HEAD       1
     162       1      81     180       1.900000         CONSTANT HEAD       1
     163       1      82       1       1.900000         CONSTANT HEAD       1
     164       1      82     180       1.900000         CONSTANT HEAD       1
     165       1      83       1       1.900000         CONSTANT HEAD       1
     166       1      83     180       1.900000         CONSTANT HEAD       1
     167       1      84       1       1.900000         CONSTANT HEAD       1
     168       1      84     180       1.900000         CONSTANT HEAD       1
     169       1      85       1       1.900000         CONSTANT HEAD       1
     170       1      85     180       1.900000         CONSTANT HEAD       1
     171       1      86       1       1.900000         CONSTANT HEAD       1
     172       1      86     180       1.900000         CONSTANT HEAD       1
     173       1      87       1       1.900000         CONSTANT HEAD       1
     174       1      87     180       1.900000         CONSTANT HEAD       1
     175       1      88       1       1.900000         CONSTANT HEAD       1
     176       1      88     180       1.900000         CONSTANT HEAD       1
     177       1      89       1       1.900000         CONSTANT HEAD       1
     178       1      89     180       1.900000         CONSTANT HEAD       1
     179       1      90       1       1.900000         CONSTANT HEAD       1
     180       1      90     180       1.900000         CONSTANT HEAD       1
     181       1      91       1       1.900000         CONSTANT HEAD       1
     182       1      91     180       1.900000         CONSTANT HEAD       1
     183       1      92       1       1.900000         CONSTANT HEAD       1
     184       1      92     180       1.900000         CONSTANT HEAD       1
     185       1      93       1       1.900000         CONSTANT HEAD       1
     186       1      93     180       1.900000         CONSTANT HEAD       1
     187       1      94       1       1.900000         CONSTANT HEAD       1
     188       1      94     180       1.900000         CONSTANT HEAD       1
     189       1      95       1       1.900000         CONSTANT HEAD       1
     190       1      95     180       1.900000         CONSTANT HEAD       1
     191       1      96       1       1.900000         CONSTANT HEAD       1
     192       1      96     180       1.900000         CONSTANT HEAD       1
     193       1      97       1       1.900000         CONSTANT HEAD       1
     194       1      97     180       1.900000         CONSTANT HEAD       1
     195       1      98       1       1.900000         CONSTANT HEAD       1
     196       1      98     180       1.900000         CONSTANT HEAD       1
     197       1      99       1       1.900000         CONSTANT HEAD       1
     198       1      99     180       1.900000         CONSTANT HEAD       1
     199       1     100       1       1.900000         CONSTANT HEAD       1
     200       1     100     180       1.900000         CONSTANT HEAD       1
     201       1     101       1       1.900000         CONSTANT HEAD       1
     202       1     101     180       1.900000         CONSTANT HEAD       1
     203       1     102       1       1.900000         CONSTANT HEAD       1
     204       1     102     180       1.900000         CONSTANT HEAD       1
     205       1     103       1       1.900000         CONSTANT HEAD       1
     206       1     103     180       1.900000         CONSTANT HEAD       1
     207       1     104       1       1.900000         CONSTANT HEAD       1
     208       1     104     180       1.900000         CONSTANT HEAD       1
     209       1     105       1       1.900000         CONSTANT HEAD       1
     210       1     105     180       1.900000         CONSTANT HEAD       1
     211       1     106       1       1.900000         CONSTANT HEAD       1
     212       1     106     180       1.900000         CONSTANT HEAD       1
     213       1     107       1       1.900000         CONSTANT HEAD       1
     214       1     107     180       1.900000         CONSTANT HEAD       1
     215       1     108       1       1.900000         CONSTANT HEAD       1
     216       1     108     180       1.900000         CONSTANT HEAD       1
     217       1     109       1       1.900000         CONSTANT HEAD       1
     218       1     109     180       1.900000         CONSTANT HEAD       1
     219       1     110       1       1.900000         CONSTANT HEAD       1
     220       1     110     180       1.900000         CONSTANT HEAD       1
     221       1     111       1       1.900000         CONSTANT HEAD       1
     222       1     111     180       1.900000         CONSTANT HEAD       1
     223       1     112       1       1.900000         CONSTANT HEAD       1
     224       1     112     180       1.900000         CONSTANT HEAD       1
     225       1     113       1       1.900000         CONSTANT HEAD       1
     226       1     113     180       1.900000         CONSTANT HEAD       1
     227       1     114       1       1.900000         CONSTANT HEAD       1
     228       1     114     180       1.900000         CONSTANT HEAD       1
     229       1     115       1       1.900000         CONSTANT HEAD       1
     230       1     115     180       1.900000         CONSTANT HEAD       1
     231       1     116       1       1.900000         CONSTANT HEAD       1
     232       1     116     180       1.900000         CONSTANT HEAD       1
     233       1     117       1       1.900000         CONSTANT HEAD       1
     234       1     117     180       1.900000         CONSTANT HEAD       1
     235       1     118       1       1.900000         CONSTANT HEAD       1
     236       1     118     180       1.900000         CONSTANT HEAD       1
     237       1     119       1       1.900000         CONSTANT HEAD       1
     238       1     119     180       1.900000         CONSTANT HEAD       1
     239       1     120       1       1.900000         CONSTANT HEAD       1
     240       1     120     180       1.900000         CONSTANT HEAD       1
     241       1     121       1       1.900000         CONSTANT HEAD       1
     242       1     121     180       1.900000         CONSTANT HEAD       1
     243       1     122       1       1.900000         CONSTANT HEAD       1
     244       1     122     180       1.900000         CONSTANT HEAD       1
     245       1     123       1       1.900000         CONSTANT HEAD       1
     246       1     123     180       1.900000         CONSTANT HEAD       1
     247       1     124       1       1.900000         CONSTANT HEAD       1
     248       1     124     180       1.900000         CONSTANT HEAD       1
     249       1     125       1       1.900000         CONSTANT HEAD       1
     250       1     125     180       1.900000         CONSTANT HEAD       1
     251       1     126       1       1.900000         CONSTANT HEAD       1
     252       1     126     180       1.900000         CONSTANT HEAD       1
     253       1     127       1       1.900000         CONSTANT HEAD       1
     254       1     127     180       1.900000         CONSTANT HEAD       1
     255       1     128       1       1.900000         CONSTANT HEAD       1
     256       1     128     180       1.900000         CONSTANT HEAD       1
     257       1     129       1       1.900000         CONSTANT HEAD       1
     258       1     129     180       1.900000         CONSTANT HEAD       1
     259       1     130       1       1.900000         CONSTANT HEAD       1
     260       1     130     180       1.900000         CONSTANT HEAD       1
     261       1     131       1       1.900000         CONSTANT HEAD       1
     262       1     131     180       1.900000         CONSTANT HEAD       1
     263       1     132       1       1.900000         CONSTANT HEAD       1
     264       1     132     180       1.900000         CONSTANT HEAD       1
     265       1     133       1       1.900000         CONSTANT HEAD       1
     266       1     133     180       1.900000         CONSTANT HEAD       1
     267       1     134       1       1.900000         CONSTANT HEAD       1
     268       1     134     180       1.900000         CONSTANT HEAD       1
     269       1     135       1       1.900000         CONSTANT HEAD       1
     270       1     135     180       1.900000         CONSTANT HEAD       1
     271       1     136       1       1.900000         CONSTANT HEAD       1
     272       1     136     180       1.900000         CONSTANT HEAD       1
     273       1     137       1       1.900000         CONSTANT HEAD       1
     274       1     137     180       1.900000         CONSTANT HEAD       1
     275       1     138       1       1.900000         CONSTANT HEAD       1
     276       1     138     180       1.900000         CONSTANT HEAD       1
     277       1     139       1       1.900000         CONSTANT HEAD       1
     278       1     139     180       1.900000         CONSTANT HEAD       1
     279       1     140       1       1.900000         CONSTANT HEAD       1
     280       1     140     180       1.900000         CONSTANT HEAD       1
     281       1     141       1       1.900000         CONSTANT HEAD       1
     282       1     141     180       1.900000         CONSTANT HEAD       1
     283       1     142       1       1.900000         CONSTANT HEAD       1
     284       1     142     180       1.900000         CONSTANT HEAD       1
     285       1     143       1       1.900000         CONSTANT HEAD       1
     286       1     143     180       1.900000         CONSTANT HEAD       1
     287       1     144       1       1.900000         CONSTANT HEAD       1
     288       1     144     180       1.900000         CONSTANT HEAD       1
     289       1     145       1       1.900000         CONSTANT HEAD       1
     290       1     145     180       1.900000         CONSTANT HEAD       1
     291       1     146       1       1.900000         CONSTANT HEAD       1
     292       1     146     180       1.900000         CONSTANT HEAD       1
     293       1     147       1       1.900000         CONSTANT HEAD       1
     294       1     147     180       1.900000         CONSTANT HEAD       1
     295       1     148       1       1.900000         CONSTANT HEAD       1
     296       1     148     180       1.900000         CONSTANT HEAD       1
     297       1     149       1       1.900000         CONSTANT HEAD       1
     298       1     149     180       1.900000         CONSTANT HEAD       1
     299       1     150       1       1.900000         CONSTANT HEAD       1
     300       1     150     180       1.900000         CONSTANT HEAD       1
     301       1     151       1       1.900000         CONSTANT HEAD       1
     302       1     151     180       1.900000         CONSTANT HEAD       1
     303       1     152       1       1.900000         CONSTANT HEAD       1
     304       1     152     180       1.900000         CONSTANT HEAD       1
     305       1     153       1       1.900000         CONSTANT HEAD       1
     306       1     153     180       1.900000         CONSTANT HEAD       1
     307       1     154       1       1.900000         CONSTANT HEAD       1
     308       1     154     180       1.900000         CONSTANT HEAD       1
     309       1     155       1       1.900000         CONSTANT HEAD       1
     310       1     155     180       1.900000         CONSTANT HEAD       1
     311       1     156       1       1.900000         CONSTANT HEAD       1
     312       1     156     180       1.900000         CONSTANT HEAD       1
     313       1     157       1       1.900000         CONSTANT HEAD       1
     314       1     157     180       1.900000         CONSTANT HEAD       1
     315       1     158       1       1.900000         CONSTANT HEAD       1
     316       1     158     180       1.900000         CONSTANT HEAD       1
     317       1     159       1       1.900000         CONSTANT HEAD       1
     318       1     159     180       1.900000         CONSTANT HEAD       1
     319       1     160       1       1.900000         CONSTANT HEAD       1
     320       1     160     180       1.900000         CONSTANT HEAD       1
     321       1     161       1       1.900000         CONSTANT HEAD       1
     322       1     161     180       1.900000         CONSTANT HEAD       1
     323       1     162       1       1.900000         CONSTANT HEAD       1
     324       1     162     180       1.900000         CONSTANT HEAD       1
     325       1     163       1       1.900000         CONSTANT HEAD       1
     326       1     163     180       1.900000         CONSTANT HEAD       1
     327       1     164       1       1.900000         CONSTANT HEAD       1
     328       1     164     180       1.900000         CONSTANT HEAD       1
     329       1     165       1       1.900000         CONSTANT HEAD       1
     330       1     165     180       1.900000         CONSTANT HEAD       1
     331       1     166       1       1.900000         CONSTANT HEAD       1
     332       1     166     180       1.900000         CONSTANT HEAD       1
     333       1     167       1       1.900000         CONSTANT HEAD       1
     334       1     167     180       1.900000         CONSTANT HEAD       1
     335       1     168       1       1.900000         CONSTANT HEAD       1
     336       1     168     180       1.900000         CONSTANT HEAD       1
     337       1     169       1       1.900000         CONSTANT HEAD       1
     338       1     169     180       1.900000         CONSTANT HEAD       1
     339       1     170       1       1.900000         CONSTANT HEAD       1
     340       1     170     180       1.900000         CONSTANT HEAD       1
     341       1     171       1       1.900000         CONSTANT HEAD       1
     342       1     171     180       1.900000         CONSTANT HEAD       1
     343       1     172       1       1.900000         CONSTANT HEAD       1
     344       1     172     180       1.900000         CONSTANT HEAD       1
     345       1     173       1       1.900000         CONSTANT HEAD       1
     346       1     173     180       1.900000         CONSTANT HEAD       1
     347       1     174       1       1.900000         CONSTANT HEAD       1
     348       1     174     180       1.900000         CONSTANT HEAD       1
     349       1     175       1       1.900000         CONSTANT HEAD       1
     350       1     175     180       1.900000         CONSTANT HEAD       1
     351       1     176       1       1.900000         CONSTANT HEAD       1
     352       1     176     180       1.900000         CONSTANT HEAD       1
     353       1     177       1       1.900000         CONSTANT HEAD       1
     354       1     177     180       1.900000         CONSTANT HEAD       1
     355       1     178       1       1.900000         CONSTANT HEAD       1
     356       1     178     180       1.900000         CONSTANT HEAD       1
     357       1     179       1       1.900000         CONSTANT HEAD       1
     358       1     179     180       1.900000         CONSTANT HEAD       1
     359       1     180       1       1.900000         CONSTANT HEAD       1
     360       1     180     180       1.900000         CONSTANT HEAD       1
     361       1      91      91      0.1500000         WELL                1


                                          ================================================
                                                         TIME STEP NO.  001
                                          ================================================

 FROM TIME =   90.000     TO    120.00    


                    "THKSAT          " FLOW TERMS FOR TIME STEP  1, STRESS PERIOD  4 READ UNFORMATTED ON UNIT 10
                    --------------------------------------------------------------------------------------------

                    "QXX             " FLOW TERMS FOR TIME STEP  1, STRESS PERIOD  4 READ UNFORMATTED ON UNIT 10
                    --------------------------------------------------------------------------------------------

                    "QYY             " FLOW TERMS FOR TIME STEP  1, STRESS PERIOD  4 READ UNFORMATTED ON UNIT 10
                    --------------------------------------------------------------------------------------------

                    "STO             " FLOW TERMS FOR TIME STEP  1, STRESS PERIOD  4 READ UNFORMATTED ON UNIT 10
                    --------------------------------------------------------------------------------------------

 MAXIMUM STEPSIZE DURING WHICH ANY PARTICLE CANNOT MOVE MORE THAN ONE CELL
 =  1.090    (WHEN MIN. R.F.=1)  AT K=   1, I=  91, J=  90

 MAXIMUM STEPSIZE WHICH MEETS STABILITY CRITERION OF THE ADVECTION TERM
 (FOR PURE FINITE-DIFFERENCE OPTION, MIXELM=0) 
 = 0.3963    (WHEN MIN. R.F.=1)  AT K=   1, I=  91, J=  91

                    "CNH             " FLOW TERMS FOR TIME STEP  1, STRESS PERIOD  4 READ UNFORMATTED ON UNIT 10
                    --------------------------------------------------------------------------------------------

                    "WEL             " FLOW TERMS FOR TIME STEP  1, STRESS PERIOD  4 READ UNFORMATTED ON UNIT 10
                    --------------------------------------------------------------------------------------------


 TOTAL NUMBER OF POINT SOURCES/SINKS PRESENT IN THE FLOW MODEL =   361

 MAXIMUM STEPSIZE WHICH MEETS STABILITY CRITERION OF THE SINK & SOURCE TERM
 = 0.1982    (WHEN MIN. R.F.=1)  AT K=   1, I=  91, J=  91

 MAXIMUM STEPSIZE WHICH MEETS STABILITY CRITERION OF THE DISPERSION TERM
 = 0.1982    (WHEN MIN. R.F.=1)  AT K=   1, I=  91, J=  91


     1 CALLS TO GCG PACKAGE FOR TRANSPORT TIME STEP     1 IN FLOW TIME STEP     1 STRESS PERIOD     4
     11 TOTAL ITERATIONS
  MAXIMUM CONCENTRATION CHANGES FOR EACH ITERATION:
  MAX. CHANGE LAYER,ROW,COL MAX. CHANGE LAYER,ROW,COL MAX. CHANGE LAYER,ROW,COL MAX. CHANGE LAYER,ROW,COL MAX. CHANGE LAYER,ROW,COL
 ------------------------------------------------------------------------------------------------------------------------------------
   0.2048     (  1, 98, 85)  0.5127E-01 (  1, 90, 95)  0.3690E-01 (  1, 96, 87)  0.1282E-01 (  1, 96, 89)  0.4622E-02 (  1, 99, 83)
   0.1437E-02 (  1,101, 82)  0.3238E-03 (  1,100, 84)  0.1218E-03 (  1,100, 83)  0.6562E-04 (  1,102, 82)  0.1609E-04 (  1,102, 80)
   0.3219E-05 (  1,104, 79)



 >>>>>>>>>>>>>>>>>>>>>>>>>>>>>>>>>>>>>>>>>>>>>>>>>>>>>>>FOR COMPONENT NO. 01<<<<<<<<<<<<<<<<<<<<<<<<<<<<<<<<<<<<<<<<<<<<<<<<<<<<<<<


                                            -------------------------------------------
                                                      TRANSPORT STEP NO.    1
                                            -------------------------------------------

 TOTAL ELAPSED TIME SINCE BEGINNING OF SIMULATION =   120.0000    D   
 .....................................................................

                     CUMULATIVE MASS BUDGETS AT END OF TRANSPORT STEP    1, TIME STEP    1, STRESS PERIOD    4
                     -----------------------------------------------------------------------------------------

                                                             IN                           OUT
                                                      ----------------             ----------------
                               CONSTANT CONCENTRATION:    0.000000                    0.000000    
                                        CONSTANT HEAD:    1345481.                   -1351628.    
                                                WELLS:    29469.62                    0.000000    
                               MASS STOR (FLOW MODEL):    1217963.                   -1584705.    
                                MASS STORAGE (SOLUTE):    343783.6                   -353.1380    
                            ---------------------------------------------------------------------------
                                              [TOTAL]:    2936697.     KG            -2936686.     KG  

                                                          NET (IN - OUT):    10.75000    
                                                   DISCREPANCY (PERCENT):   0.3660582E-03


                                   ++++++++++++++++++++++++++++++++++++++++++++++++++++++++++++++
                                                       STRESS PERIOD NO.  005
                                   ++++++++++++++++++++++++++++++++++++++++++++++++++++++++++++++


 LENGTH OF CURRENT STRESS PERIOD =   30.00000    
 NUMBER OF TIME STEPS FOR CURRENT STRESS PERIOD =    1
 TIME STEP MULTIPLIER USED IN FLOW SOLUTION =   1.000000    

 ***Type of Transport Simulation is TRANSIENT

 USER-SPECIFIED TRANSPORT STEPSIZE =   30.00000    D   
 MAXIMUM NUMBER OF TRANSPORT STEPS ALLOWED  IN ONE FLOW TIME STEP =     50000
 MULTIPLIER FOR SUCCESSIVE TRANSPORT STEPS  [USED IN IMPLICIT SCHEMES] =     1.000
 MAXIMUM TRANSPORT STEP SIZE  [USED IN IMPLICIT SCHEMES] =   0.000000    D   

       NO    LAYER   ROW   COLUMN   CONCENTRATION       TYPE            COMPONENT
       1       1       1       1       1.900000         CONSTANT HEAD       1
       2       1       1     180       1.900000         CONSTANT HEAD       1
       3       1       2       1       1.900000         CONSTANT HEAD       1
       4       1       2     180       1.900000         CONSTANT HEAD       1
       5       1       3       1       1.900000         CONSTANT HEAD       1
       6       1       3     180       1.900000         CONSTANT HEAD       1
       7       1       4       1       1.900000         CONSTANT HEAD       1
       8       1       4     180       1.900000         CONSTANT HEAD       1
       9       1       5       1       1.900000         CONSTANT HEAD       1
      10       1       5     180       1.900000         CONSTANT HEAD       1
      11       1       6       1       1.900000         CONSTANT HEAD       1
      12       1       6     180       1.900000         CONSTANT HEAD       1
      13       1       7       1       1.900000         CONSTANT HEAD       1
      14       1       7     180       1.900000         CONSTANT HEAD       1
      15       1       8       1       1.900000         CONSTANT HEAD       1
      16       1       8     180       1.900000         CONSTANT HEAD       1
      17       1       9       1       1.900000         CONSTANT HEAD       1
      18       1       9     180       1.900000         CONSTANT HEAD       1
      19       1      10       1       1.900000         CONSTANT HEAD       1
      20       1      10     180       1.900000         CONSTANT HEAD       1
      21       1      11       1       1.900000         CONSTANT HEAD       1
      22       1      11     180       1.900000         CONSTANT HEAD       1
      23       1      12       1       1.900000         CONSTANT HEAD       1
      24       1      12     180       1.900000         CONSTANT HEAD       1
      25       1      13       1       1.900000         CONSTANT HEAD       1
      26       1      13     180       1.900000         CONSTANT HEAD       1
      27       1      14       1       1.900000         CONSTANT HEAD       1
      28       1      14     180       1.900000         CONSTANT HEAD       1
      29       1      15       1       1.900000         CONSTANT HEAD       1
      30       1      15     180       1.900000         CONSTANT HEAD       1
      31       1      16       1       1.900000         CONSTANT HEAD       1
      32       1      16     180       1.900000         CONSTANT HEAD       1
      33       1      17       1       1.900000         CONSTANT HEAD       1
      34       1      17     180       1.900000         CONSTANT HEAD       1
      35       1      18       1       1.900000         CONSTANT HEAD       1
      36       1      18     180       1.900000         CONSTANT HEAD       1
      37       1      19       1       1.900000         CONSTANT HEAD       1
      38       1      19     180       1.900000         CONSTANT HEAD       1
      39       1      20       1       1.900000         CONSTANT HEAD       1
      40       1      20     180       1.900000         CONSTANT HEAD       1
      41       1      21       1       1.900000         CONSTANT HEAD       1
      42       1      21     180       1.900000         CONSTANT HEAD       1
      43       1      22       1       1.900000         CONSTANT HEAD       1
      44       1      22     180       1.900000         CONSTANT HEAD       1
      45       1      23       1       1.900000         CONSTANT HEAD       1
      46       1      23     180       1.900000         CONSTANT HEAD       1
      47       1      24       1       1.900000         CONSTANT HEAD       1
      48       1      24     180       1.900000         CONSTANT HEAD       1
      49       1      25       1       1.900000         CONSTANT HEAD       1
      50       1      25     180       1.900000         CONSTANT HEAD       1
      51       1      26       1       1.900000         CONSTANT HEAD       1
      52       1      26     180       1.900000         CONSTANT HEAD       1
      53       1      27       1       1.900000         CONSTANT HEAD       1
      54       1      27     180       1.900000         CONSTANT HEAD       1
      55       1      28       1       1.900000         CONSTANT HEAD       1
      56       1      28     180       1.900000         CONSTANT HEAD       1
      57       1      29       1       1.900000         CONSTANT HEAD       1
      58       1      29     180       1.900000         CONSTANT HEAD       1
      59       1      30       1       1.900000         CONSTANT HEAD       1
      60       1      30     180       1.900000         CONSTANT HEAD       1
      61       1      31       1       1.900000         CONSTANT HEAD       1
      62       1      31     180       1.900000         CONSTANT HEAD       1
      63       1      32       1       1.900000         CONSTANT HEAD       1
      64       1      32     180       1.900000         CONSTANT HEAD       1
      65       1      33       1       1.900000         CONSTANT HEAD       1
      66       1      33     180       1.900000         CONSTANT HEAD       1
      67       1      34       1       1.900000         CONSTANT HEAD       1
      68       1      34     180       1.900000         CONSTANT HEAD       1
      69       1      35       1       1.900000         CONSTANT HEAD       1
      70       1      35     180       1.900000         CONSTANT HEAD       1
      71       1      36       1       1.900000         CONSTANT HEAD       1
      72       1      36     180       1.900000         CONSTANT HEAD       1
      73       1      37       1       1.900000         CONSTANT HEAD       1
      74       1      37     180       1.900000         CONSTANT HEAD       1
      75       1      38       1       1.900000         CONSTANT HEAD       1
      76       1      38     180       1.900000         CONSTANT HEAD       1
      77       1      39       1       1.900000         CONSTANT HEAD       1
      78       1      39     180       1.900000         CONSTANT HEAD       1
      79       1      40       1       1.900000         CONSTANT HEAD       1
      80       1      40     180       1.900000         CONSTANT HEAD       1
      81       1      41       1       1.900000         CONSTANT HEAD       1
      82       1      41     180       1.900000         CONSTANT HEAD       1
      83       1      42       1       1.900000         CONSTANT HEAD       1
      84       1      42     180       1.900000         CONSTANT HEAD       1
      85       1      43       1       1.900000         CONSTANT HEAD       1
      86       1      43     180       1.900000         CONSTANT HEAD       1
      87       1      44       1       1.900000         CONSTANT HEAD       1
      88       1      44     180       1.900000         CONSTANT HEAD       1
      89       1      45       1       1.900000         CONSTANT HEAD       1
      90       1      45     180       1.900000         CONSTANT HEAD       1
      91       1      46       1       1.900000         CONSTANT HEAD       1
      92       1      46     180       1.900000         CONSTANT HEAD       1
      93       1      47       1       1.900000         CONSTANT HEAD       1
      94       1      47     180       1.900000         CONSTANT HEAD       1
      95       1      48       1       1.900000         CONSTANT HEAD       1
      96       1      48     180       1.900000         CONSTANT HEAD       1
      97       1      49       1       1.900000         CONSTANT HEAD       1
      98       1      49     180       1.900000         CONSTANT HEAD       1
      99       1      50       1       1.900000         CONSTANT HEAD       1
     100       1      50     180       1.900000         CONSTANT HEAD       1
     101       1      51       1       1.900000         CONSTANT HEAD       1
     102       1      51     180       1.900000         CONSTANT HEAD       1
     103       1      52       1       1.900000         CONSTANT HEAD       1
     104       1      52     180       1.900000         CONSTANT HEAD       1
     105       1      53       1       1.900000         CONSTANT HEAD       1
     106       1      53     180       1.900000         CONSTANT HEAD       1
     107       1      54       1       1.900000         CONSTANT HEAD       1
     108       1      54     180       1.900000         CONSTANT HEAD       1
     109       1      55       1       1.900000         CONSTANT HEAD       1
     110       1      55     180       1.900000         CONSTANT HEAD       1
     111       1      56       1       1.900000         CONSTANT HEAD       1
     112       1      56     180       1.900000         CONSTANT HEAD       1
     113       1      57       1       1.900000         CONSTANT HEAD       1
     114       1      57     180       1.900000         CONSTANT HEAD       1
     115       1      58       1       1.900000         CONSTANT HEAD       1
     116       1      58     180       1.900000         CONSTANT HEAD       1
     117       1      59       1       1.900000         CONSTANT HEAD       1
     118       1      59     180       1.900000         CONSTANT HEAD       1
     119       1      60       1       1.900000         CONSTANT HEAD       1
     120       1      60     180       1.900000         CONSTANT HEAD       1
     121       1      61       1       1.900000         CONSTANT HEAD       1
     122       1      61     180       1.900000         CONSTANT HEAD       1
     123       1      62       1       1.900000         CONSTANT HEAD       1
     124       1      62     180       1.900000         CONSTANT HEAD       1
     125       1      63       1       1.900000         CONSTANT HEAD       1
     126       1      63     180       1.900000         CONSTANT HEAD       1
     127       1      64       1       1.900000         CONSTANT HEAD       1
     128       1      64     180       1.900000         CONSTANT HEAD       1
     129       1      65       1       1.900000         CONSTANT HEAD       1
     130       1      65     180       1.900000         CONSTANT HEAD       1
     131       1      66       1       1.900000         CONSTANT HEAD       1
     132       1      66     180       1.900000         CONSTANT HEAD       1
     133       1      67       1       1.900000         CONSTANT HEAD       1
     134       1      67     180       1.900000         CONSTANT HEAD       1
     135       1      68       1       1.900000         CONSTANT HEAD       1
     136       1      68     180       1.900000         CONSTANT HEAD       1
     137       1      69       1       1.900000         CONSTANT HEAD       1
     138       1      69     180       1.900000         CONSTANT HEAD       1
     139       1      70       1       1.900000         CONSTANT HEAD       1
     140       1      70     180       1.900000         CONSTANT HEAD       1
     141       1      71       1       1.900000         CONSTANT HEAD       1
     142       1      71     180       1.900000         CONSTANT HEAD       1
     143       1      72       1       1.900000         CONSTANT HEAD       1
     144       1      72     180       1.900000         CONSTANT HEAD       1
     145       1      73       1       1.900000         CONSTANT HEAD       1
     146       1      73     180       1.900000         CONSTANT HEAD       1
     147       1      74       1       1.900000         CONSTANT HEAD       1
     148       1      74     180       1.900000         CONSTANT HEAD       1
     149       1      75       1       1.900000         CONSTANT HEAD       1
     150       1      75     180       1.900000         CONSTANT HEAD       1
     151       1      76       1       1.900000         CONSTANT HEAD       1
     152       1      76     180       1.900000         CONSTANT HEAD       1
     153       1      77       1       1.900000         CONSTANT HEAD       1
     154       1      77     180       1.900000         CONSTANT HEAD       1
     155       1      78       1       1.900000         CONSTANT HEAD       1
     156       1      78     180       1.900000         CONSTANT HEAD       1
     157       1      79       1       1.900000         CONSTANT HEAD       1
     158       1      79     180       1.900000         CONSTANT HEAD       1
     159       1      80       1       1.900000         CONSTANT HEAD       1
     160       1      80     180       1.900000         CONSTANT HEAD       1
     161       1      81       1       1.900000         CONSTANT HEAD       1
     162       1      81     180       1.900000         CONSTANT HEAD       1
     163       1      82       1       1.900000         CONSTANT HEAD       1
     164       1      82     180       1.900000         CONSTANT HEAD       1
     165       1      83       1       1.900000         CONSTANT HEAD       1
     166       1      83     180       1.900000         CONSTANT HEAD       1
     167       1      84       1       1.900000         CONSTANT HEAD       1
     168       1      84     180       1.900000         CONSTANT HEAD       1
     169       1      85       1       1.900000         CONSTANT HEAD       1
     170       1      85     180       1.900000         CONSTANT HEAD       1
     171       1      86       1       1.900000         CONSTANT HEAD       1
     172       1      86     180       1.900000         CONSTANT HEAD       1
     173       1      87       1       1.900000         CONSTANT HEAD       1
     174       1      87     180       1.900000         CONSTANT HEAD       1
     175       1      88       1       1.900000         CONSTANT HEAD       1
     176       1      88     180       1.900000         CONSTANT HEAD       1
     177       1      89       1       1.900000         CONSTANT HEAD       1
     178       1      89     180       1.900000         CONSTANT HEAD       1
     179       1      90       1       1.900000         CONSTANT HEAD       1
     180       1      90     180       1.900000         CONSTANT HEAD       1
     181       1      91       1       1.900000         CONSTANT HEAD       1
     182       1      91     180       1.900000         CONSTANT HEAD       1
     183       1      92       1       1.900000         CONSTANT HEAD       1
     184       1      92     180       1.900000         CONSTANT HEAD       1
     185       1      93       1       1.900000         CONSTANT HEAD       1
     186       1      93     180       1.900000         CONSTANT HEAD       1
     187       1      94       1       1.900000         CONSTANT HEAD       1
     188       1      94     180       1.900000         CONSTANT HEAD       1
     189       1      95       1       1.900000         CONSTANT HEAD       1
     190       1      95     180       1.900000         CONSTANT HEAD       1
     191       1      96       1       1.900000         CONSTANT HEAD       1
     192       1      96     180       1.900000         CONSTANT HEAD       1
     193       1      97       1       1.900000         CONSTANT HEAD       1
     194       1      97     180       1.900000         CONSTANT HEAD       1
     195       1      98       1       1.900000         CONSTANT HEAD       1
     196       1      98     180       1.900000         CONSTANT HEAD       1
     197       1      99       1       1.900000         CONSTANT HEAD       1
     198       1      99     180       1.900000         CONSTANT HEAD       1
     199       1     100       1       1.900000         CONSTANT HEAD       1
     200       1     100     180       1.900000         CONSTANT HEAD       1
     201       1     101       1       1.900000         CONSTANT HEAD       1
     202       1     101     180       1.900000         CONSTANT HEAD       1
     203       1     102       1       1.900000         CONSTANT HEAD       1
     204       1     102     180       1.900000         CONSTANT HEAD       1
     205       1     103       1       1.900000         CONSTANT HEAD       1
     206       1     103     180       1.900000         CONSTANT HEAD       1
     207       1     104       1       1.900000         CONSTANT HEAD       1
     208       1     104     180       1.900000         CONSTANT HEAD       1
     209       1     105       1       1.900000         CONSTANT HEAD       1
     210       1     105     180       1.900000         CONSTANT HEAD       1
     211       1     106       1       1.900000         CONSTANT HEAD       1
     212       1     106     180       1.900000         CONSTANT HEAD       1
     213       1     107       1       1.900000         CONSTANT HEAD       1
     214       1     107     180       1.900000         CONSTANT HEAD       1
     215       1     108       1       1.900000         CONSTANT HEAD       1
     216       1     108     180       1.900000         CONSTANT HEAD       1
     217       1     109       1       1.900000         CONSTANT HEAD       1
     218       1     109     180       1.900000         CONSTANT HEAD       1
     219       1     110       1       1.900000         CONSTANT HEAD       1
     220       1     110     180       1.900000         CONSTANT HEAD       1
     221       1     111       1       1.900000         CONSTANT HEAD       1
     222       1     111     180       1.900000         CONSTANT HEAD       1
     223       1     112       1       1.900000         CONSTANT HEAD       1
     224       1     112     180       1.900000         CONSTANT HEAD       1
     225       1     113       1       1.900000         CONSTANT HEAD       1
     226       1     113     180       1.900000         CONSTANT HEAD       1
     227       1     114       1       1.900000         CONSTANT HEAD       1
     228       1     114     180       1.900000         CONSTANT HEAD       1
     229       1     115       1       1.900000         CONSTANT HEAD       1
     230       1     115     180       1.900000         CONSTANT HEAD       1
     231       1     116       1       1.900000         CONSTANT HEAD       1
     232       1     116     180       1.900000         CONSTANT HEAD       1
     233       1     117       1       1.900000         CONSTANT HEAD       1
     234       1     117     180       1.900000         CONSTANT HEAD       1
     235       1     118       1       1.900000         CONSTANT HEAD       1
     236       1     118     180       1.900000         CONSTANT HEAD       1
     237       1     119       1       1.900000         CONSTANT HEAD       1
     238       1     119     180       1.900000         CONSTANT HEAD       1
     239       1     120       1       1.900000         CONSTANT HEAD       1
     240       1     120     180       1.900000         CONSTANT HEAD       1
     241       1     121       1       1.900000         CONSTANT HEAD       1
     242       1     121     180       1.900000         CONSTANT HEAD       1
     243       1     122       1       1.900000         CONSTANT HEAD       1
     244       1     122     180       1.900000         CONSTANT HEAD       1
     245       1     123       1       1.900000         CONSTANT HEAD       1
     246       1     123     180       1.900000         CONSTANT HEAD       1
     247       1     124       1       1.900000         CONSTANT HEAD       1
     248       1     124     180       1.900000         CONSTANT HEAD       1
     249       1     125       1       1.900000         CONSTANT HEAD       1
     250       1     125     180       1.900000         CONSTANT HEAD       1
     251       1     126       1       1.900000         CONSTANT HEAD       1
     252       1     126     180       1.900000         CONSTANT HEAD       1
     253       1     127       1       1.900000         CONSTANT HEAD       1
     254       1     127     180       1.900000         CONSTANT HEAD       1
     255       1     128       1       1.900000         CONSTANT HEAD       1
     256       1     128     180       1.900000         CONSTANT HEAD       1
     257       1     129       1       1.900000         CONSTANT HEAD       1
     258       1     129     180       1.900000         CONSTANT HEAD       1
     259       1     130       1       1.900000         CONSTANT HEAD       1
     260       1     130     180       1.900000         CONSTANT HEAD       1
     261       1     131       1       1.900000         CONSTANT HEAD       1
     262       1     131     180       1.900000         CONSTANT HEAD       1
     263       1     132       1       1.900000         CONSTANT HEAD       1
     264       1     132     180       1.900000         CONSTANT HEAD       1
     265       1     133       1       1.900000         CONSTANT HEAD       1
     266       1     133     180       1.900000         CONSTANT HEAD       1
     267       1     134       1       1.900000         CONSTANT HEAD       1
     268       1     134     180       1.900000         CONSTANT HEAD       1
     269       1     135       1       1.900000         CONSTANT HEAD       1
     270       1     135     180       1.900000         CONSTANT HEAD       1
     271       1     136       1       1.900000         CONSTANT HEAD       1
     272       1     136     180       1.900000         CONSTANT HEAD       1
     273       1     137       1       1.900000         CONSTANT HEAD       1
     274       1     137     180       1.900000         CONSTANT HEAD       1
     275       1     138       1       1.900000         CONSTANT HEAD       1
     276       1     138     180       1.900000         CONSTANT HEAD       1
     277       1     139       1       1.900000         CONSTANT HEAD       1
     278       1     139     180       1.900000         CONSTANT HEAD       1
     279       1     140       1       1.900000         CONSTANT HEAD       1
     280       1     140     180       1.900000         CONSTANT HEAD       1
     281       1     141       1       1.900000         CONSTANT HEAD       1
     282       1     141     180       1.900000         CONSTANT HEAD       1
     283       1     142       1       1.900000         CONSTANT HEAD       1
     284       1     142     180       1.900000         CONSTANT HEAD       1
     285       1     143       1       1.900000         CONSTANT HEAD       1
     286       1     143     180       1.900000         CONSTANT HEAD       1
     287       1     144       1       1.900000         CONSTANT HEAD       1
     288       1     144     180       1.900000         CONSTANT HEAD       1
     289       1     145       1       1.900000         CONSTANT HEAD       1
     290       1     145     180       1.900000         CONSTANT HEAD       1
     291       1     146       1       1.900000         CONSTANT HEAD       1
     292       1     146     180       1.900000         CONSTANT HEAD       1
     293       1     147       1       1.900000         CONSTANT HEAD       1
     294       1     147     180       1.900000         CONSTANT HEAD       1
     295       1     148       1       1.900000         CONSTANT HEAD       1
     296       1     148     180       1.900000         CONSTANT HEAD       1
     297       1     149       1       1.900000         CONSTANT HEAD       1
     298       1     149     180       1.900000         CONSTANT HEAD       1
     299       1     150       1       1.900000         CONSTANT HEAD       1
     300       1     150     180       1.900000         CONSTANT HEAD       1
     301       1     151       1       1.900000         CONSTANT HEAD       1
     302       1     151     180       1.900000         CONSTANT HEAD       1
     303       1     152       1       1.900000         CONSTANT HEAD       1
     304       1     152     180       1.900000         CONSTANT HEAD       1
     305       1     153       1       1.900000         CONSTANT HEAD       1
     306       1     153     180       1.900000         CONSTANT HEAD       1
     307       1     154       1       1.900000         CONSTANT HEAD       1
     308       1     154     180       1.900000         CONSTANT HEAD       1
     309       1     155       1       1.900000         CONSTANT HEAD       1
     310       1     155     180       1.900000         CONSTANT HEAD       1
     311       1     156       1       1.900000         CONSTANT HEAD       1
     312       1     156     180       1.900000         CONSTANT HEAD       1
     313       1     157       1       1.900000         CONSTANT HEAD       1
     314       1     157     180       1.900000         CONSTANT HEAD       1
     315       1     158       1       1.900000         CONSTANT HEAD       1
     316       1     158     180       1.900000         CONSTANT HEAD       1
     317       1     159       1       1.900000         CONSTANT HEAD       1
     318       1     159     180       1.900000         CONSTANT HEAD       1
     319       1     160       1       1.900000         CONSTANT HEAD       1
     320       1     160     180       1.900000         CONSTANT HEAD       1
     321       1     161       1       1.900000         CONSTANT HEAD       1
     322       1     161     180       1.900000         CONSTANT HEAD       1
     323       1     162       1       1.900000         CONSTANT HEAD       1
     324       1     162     180       1.900000         CONSTANT HEAD       1
     325       1     163       1       1.900000         CONSTANT HEAD       1
     326       1     163     180       1.900000         CONSTANT HEAD       1
     327       1     164       1       1.900000         CONSTANT HEAD       1
     328       1     164     180       1.900000         CONSTANT HEAD       1
     329       1     165       1       1.900000         CONSTANT HEAD       1
     330       1     165     180       1.900000         CONSTANT HEAD       1
     331       1     166       1       1.900000         CONSTANT HEAD       1
     332       1     166     180       1.900000         CONSTANT HEAD       1
     333       1     167       1       1.900000         CONSTANT HEAD       1
     334       1     167     180       1.900000         CONSTANT HEAD       1
     335       1     168       1       1.900000         CONSTANT HEAD       1
     336       1     168     180       1.900000         CONSTANT HEAD       1
     337       1     169       1       1.900000         CONSTANT HEAD       1
     338       1     169     180       1.900000         CONSTANT HEAD       1
     339       1     170       1       1.900000         CONSTANT HEAD       1
     340       1     170     180       1.900000         CONSTANT HEAD       1
     341       1     171       1       1.900000         CONSTANT HEAD       1
     342       1     171     180       1.900000         CONSTANT HEAD       1
     343       1     172       1       1.900000         CONSTANT HEAD       1
     344       1     172     180       1.900000         CONSTANT HEAD       1
     345       1     173       1       1.900000         CONSTANT HEAD       1
     346       1     173     180       1.900000         CONSTANT HEAD       1
     347       1     174       1       1.900000         CONSTANT HEAD       1
     348       1     174     180       1.900000         CONSTANT HEAD       1
     349       1     175       1       1.900000         CONSTANT HEAD       1
     350       1     175     180       1.900000         CONSTANT HEAD       1
     351       1     176       1       1.900000         CONSTANT HEAD       1
     352       1     176     180       1.900000         CONSTANT HEAD       1
     353       1     177       1       1.900000         CONSTANT HEAD       1
     354       1     177     180       1.900000         CONSTANT HEAD       1
     355       1     178       1       1.900000         CONSTANT HEAD       1
     356       1     178     180       1.900000         CONSTANT HEAD       1
     357       1     179       1       1.900000         CONSTANT HEAD       1
     358       1     179     180       1.900000         CONSTANT HEAD       1
     359       1     180       1       1.900000         CONSTANT HEAD       1
     360       1     180     180       1.900000         CONSTANT HEAD       1
     361       1      91      91      0.1500000         WELL                1


                                          ================================================
                                                         TIME STEP NO.  001
                                          ================================================

 FROM TIME =   120.00     TO    150.00    


                    "THKSAT          " FLOW TERMS FOR TIME STEP  1, STRESS PERIOD  5 READ UNFORMATTED ON UNIT 10
                    --------------------------------------------------------------------------------------------

                    "QXX             " FLOW TERMS FOR TIME STEP  1, STRESS PERIOD  5 READ UNFORMATTED ON UNIT 10
                    --------------------------------------------------------------------------------------------

                    "QYY             " FLOW TERMS FOR TIME STEP  1, STRESS PERIOD  5 READ UNFORMATTED ON UNIT 10
                    --------------------------------------------------------------------------------------------

                    "STO             " FLOW TERMS FOR TIME STEP  1, STRESS PERIOD  5 READ UNFORMATTED ON UNIT 10
                    --------------------------------------------------------------------------------------------

 MAXIMUM STEPSIZE DURING WHICH ANY PARTICLE CANNOT MOVE MORE THAN ONE CELL
 =  1.642    (WHEN MIN. R.F.=1)  AT K=   1, I=  91, J=  92

 MAXIMUM STEPSIZE WHICH MEETS STABILITY CRITERION OF THE ADVECTION TERM
 (FOR PURE FINITE-DIFFERENCE OPTION, MIXELM=0) 
 = 0.5972    (WHEN MIN. R.F.=1)  AT K=   1, I=  91, J=  91

                    "CNH             " FLOW TERMS FOR TIME STEP  1, STRESS PERIOD  5 READ UNFORMATTED ON UNIT 10
                    --------------------------------------------------------------------------------------------

                    "WEL             " FLOW TERMS FOR TIME STEP  1, STRESS PERIOD  5 READ UNFORMATTED ON UNIT 10
                    --------------------------------------------------------------------------------------------


 TOTAL NUMBER OF POINT SOURCES/SINKS PRESENT IN THE FLOW MODEL =   361

 MAXIMUM STEPSIZE WHICH MEETS STABILITY CRITERION OF THE SINK & SOURCE TERM
 = 0.3786E+05(WHEN MIN. R.F.=1)  AT K=   1, I=   1, J= 180

 MAXIMUM STEPSIZE WHICH MEETS STABILITY CRITERION OF THE DISPERSION TERM
 = 0.2986    (WHEN MIN. R.F.=1)  AT K=   1, I=  91, J=  91


     1 CALLS TO GCG PACKAGE FOR TRANSPORT TIME STEP     1 IN FLOW TIME STEP     1 STRESS PERIOD     5
      6 TOTAL ITERATIONS
  MAXIMUM CONCENTRATION CHANGES FOR EACH ITERATION:
  MAX. CHANGE LAYER,ROW,COL MAX. CHANGE LAYER,ROW,COL MAX. CHANGE LAYER,ROW,COL MAX. CHANGE LAYER,ROW,COL MAX. CHANGE LAYER,ROW,COL
 ------------------------------------------------------------------------------------------------------------------------------------
   0.1440     (  1, 86, 96)  0.9029E-02 (  1, 90, 93)  0.2506E-02 (  1, 91, 91)  0.8287E-03 (  1, 91, 91)  0.1174E-03 (  1, 92, 92)
   0.8523E-05 (  1, 91, 93)



 >>>>>>>>>>>>>>>>>>>>>>>>>>>>>>>>>>>>>>>>>>>>>>>>>>>>>>>FOR COMPONENT NO. 01<<<<<<<<<<<<<<<<<<<<<<<<<<<<<<<<<<<<<<<<<<<<<<<<<<<<<<<


                                            -------------------------------------------
                                                      TRANSPORT STEP NO.    1
                                            -------------------------------------------

 TOTAL ELAPSED TIME SINCE BEGINNING OF SIMULATION =   150.0000    D   
 .....................................................................

                     CUMULATIVE MASS BUDGETS AT END OF TRANSPORT STEP    1, TIME STEP    1, STRESS PERIOD    5
                     -----------------------------------------------------------------------------------------

                                                             IN                           OUT
                                                      ----------------             ----------------
                               CONSTANT CONCENTRATION:    0.000000                    0.000000    
                                        CONSTANT HEAD:    1579218.                   -1590432.    
                                                WELLS:    29469.62                   -15947.75    
                               MASS STOR (FLOW MODEL):    1507682.                   -1797404.    
                                MASS STORAGE (SOLUTE):    343895.6                   -56418.28    
                            ---------------------------------------------------------------------------
                                              [TOTAL]:    3460265.     KG            -3460203.     KG  

                                                          NET (IN - OUT):    62.25000    
                                                   DISCREPANCY (PERCENT):   0.1799011E-02


                                   ++++++++++++++++++++++++++++++++++++++++++++++++++++++++++++++
                                                       STRESS PERIOD NO.  006
                                   ++++++++++++++++++++++++++++++++++++++++++++++++++++++++++++++


 LENGTH OF CURRENT STRESS PERIOD =   30.00000    
 NUMBER OF TIME STEPS FOR CURRENT STRESS PERIOD =    1
 TIME STEP MULTIPLIER USED IN FLOW SOLUTION =   1.000000    

 ***Type of Transport Simulation is TRANSIENT

 USER-SPECIFIED TRANSPORT STEPSIZE =   30.00000    D   
 MAXIMUM NUMBER OF TRANSPORT STEPS ALLOWED  IN ONE FLOW TIME STEP =     50000
 MULTIPLIER FOR SUCCESSIVE TRANSPORT STEPS  [USED IN IMPLICIT SCHEMES] =     1.000
 MAXIMUM TRANSPORT STEP SIZE  [USED IN IMPLICIT SCHEMES] =   0.000000    D   

       NO    LAYER   ROW   COLUMN   CONCENTRATION       TYPE            COMPONENT
       1       1       1       1       1.900000         CONSTANT HEAD       1
       2       1       1     180       1.900000         CONSTANT HEAD       1
       3       1       2       1       1.900000         CONSTANT HEAD       1
       4       1       2     180       1.900000         CONSTANT HEAD       1
       5       1       3       1       1.900000         CONSTANT HEAD       1
       6       1       3     180       1.900000         CONSTANT HEAD       1
       7       1       4       1       1.900000         CONSTANT HEAD       1
       8       1       4     180       1.900000         CONSTANT HEAD       1
       9       1       5       1       1.900000         CONSTANT HEAD       1
      10       1       5     180       1.900000         CONSTANT HEAD       1
      11       1       6       1       1.900000         CONSTANT HEAD       1
      12       1       6     180       1.900000         CONSTANT HEAD       1
      13       1       7       1       1.900000         CONSTANT HEAD       1
      14       1       7     180       1.900000         CONSTANT HEAD       1
      15       1       8       1       1.900000         CONSTANT HEAD       1
      16       1       8     180       1.900000         CONSTANT HEAD       1
      17       1       9       1       1.900000         CONSTANT HEAD       1
      18       1       9     180       1.900000         CONSTANT HEAD       1
      19       1      10       1       1.900000         CONSTANT HEAD       1
      20       1      10     180       1.900000         CONSTANT HEAD       1
      21       1      11       1       1.900000         CONSTANT HEAD       1
      22       1      11     180       1.900000         CONSTANT HEAD       1
      23       1      12       1       1.900000         CONSTANT HEAD       1
      24       1      12     180       1.900000         CONSTANT HEAD       1
      25       1      13       1       1.900000         CONSTANT HEAD       1
      26       1      13     180       1.900000         CONSTANT HEAD       1
      27       1      14       1       1.900000         CONSTANT HEAD       1
      28       1      14     180       1.900000         CONSTANT HEAD       1
      29       1      15       1       1.900000         CONSTANT HEAD       1
      30       1      15     180       1.900000         CONSTANT HEAD       1
      31       1      16       1       1.900000         CONSTANT HEAD       1
      32       1      16     180       1.900000         CONSTANT HEAD       1
      33       1      17       1       1.900000         CONSTANT HEAD       1
      34       1      17     180       1.900000         CONSTANT HEAD       1
      35       1      18       1       1.900000         CONSTANT HEAD       1
      36       1      18     180       1.900000         CONSTANT HEAD       1
      37       1      19       1       1.900000         CONSTANT HEAD       1
      38       1      19     180       1.900000         CONSTANT HEAD       1
      39       1      20       1       1.900000         CONSTANT HEAD       1
      40       1      20     180       1.900000         CONSTANT HEAD       1
      41       1      21       1       1.900000         CONSTANT HEAD       1
      42       1      21     180       1.900000         CONSTANT HEAD       1
      43       1      22       1       1.900000         CONSTANT HEAD       1
      44       1      22     180       1.900000         CONSTANT HEAD       1
      45       1      23       1       1.900000         CONSTANT HEAD       1
      46       1      23     180       1.900000         CONSTANT HEAD       1
      47       1      24       1       1.900000         CONSTANT HEAD       1
      48       1      24     180       1.900000         CONSTANT HEAD       1
      49       1      25       1       1.900000         CONSTANT HEAD       1
      50       1      25     180       1.900000         CONSTANT HEAD       1
      51       1      26       1       1.900000         CONSTANT HEAD       1
      52       1      26     180       1.900000         CONSTANT HEAD       1
      53       1      27       1       1.900000         CONSTANT HEAD       1
      54       1      27     180       1.900000         CONSTANT HEAD       1
      55       1      28       1       1.900000         CONSTANT HEAD       1
      56       1      28     180       1.900000         CONSTANT HEAD       1
      57       1      29       1       1.900000         CONSTANT HEAD       1
      58       1      29     180       1.900000         CONSTANT HEAD       1
      59       1      30       1       1.900000         CONSTANT HEAD       1
      60       1      30     180       1.900000         CONSTANT HEAD       1
      61       1      31       1       1.900000         CONSTANT HEAD       1
      62       1      31     180       1.900000         CONSTANT HEAD       1
      63       1      32       1       1.900000         CONSTANT HEAD       1
      64       1      32     180       1.900000         CONSTANT HEAD       1
      65       1      33       1       1.900000         CONSTANT HEAD       1
      66       1      33     180       1.900000         CONSTANT HEAD       1
      67       1      34       1       1.900000         CONSTANT HEAD       1
      68       1      34     180       1.900000         CONSTANT HEAD       1
      69       1      35       1       1.900000         CONSTANT HEAD       1
      70       1      35     180       1.900000         CONSTANT HEAD       1
      71       1      36       1       1.900000         CONSTANT HEAD       1
      72       1      36     180       1.900000         CONSTANT HEAD       1
      73       1      37       1       1.900000         CONSTANT HEAD       1
      74       1      37     180       1.900000         CONSTANT HEAD       1
      75       1      38       1       1.900000         CONSTANT HEAD       1
      76       1      38     180       1.900000         CONSTANT HEAD       1
      77       1      39       1       1.900000         CONSTANT HEAD       1
      78       1      39     180       1.900000         CONSTANT HEAD       1
      79       1      40       1       1.900000         CONSTANT HEAD       1
      80       1      40     180       1.900000         CONSTANT HEAD       1
      81       1      41       1       1.900000         CONSTANT HEAD       1
      82       1      41     180       1.900000         CONSTANT HEAD       1
      83       1      42       1       1.900000         CONSTANT HEAD       1
      84       1      42     180       1.900000         CONSTANT HEAD       1
      85       1      43       1       1.900000         CONSTANT HEAD       1
      86       1      43     180       1.900000         CONSTANT HEAD       1
      87       1      44       1       1.900000         CONSTANT HEAD       1
      88       1      44     180       1.900000         CONSTANT HEAD       1
      89       1      45       1       1.900000         CONSTANT HEAD       1
      90       1      45     180       1.900000         CONSTANT HEAD       1
      91       1      46       1       1.900000         CONSTANT HEAD       1
      92       1      46     180       1.900000         CONSTANT HEAD       1
      93       1      47       1       1.900000         CONSTANT HEAD       1
      94       1      47     180       1.900000         CONSTANT HEAD       1
      95       1      48       1       1.900000         CONSTANT HEAD       1
      96       1      48     180       1.900000         CONSTANT HEAD       1
      97       1      49       1       1.900000         CONSTANT HEAD       1
      98       1      49     180       1.900000         CONSTANT HEAD       1
      99       1      50       1       1.900000         CONSTANT HEAD       1
     100       1      50     180       1.900000         CONSTANT HEAD       1
     101       1      51       1       1.900000         CONSTANT HEAD       1
     102       1      51     180       1.900000         CONSTANT HEAD       1
     103       1      52       1       1.900000         CONSTANT HEAD       1
     104       1      52     180       1.900000         CONSTANT HEAD       1
     105       1      53       1       1.900000         CONSTANT HEAD       1
     106       1      53     180       1.900000         CONSTANT HEAD       1
     107       1      54       1       1.900000         CONSTANT HEAD       1
     108       1      54     180       1.900000         CONSTANT HEAD       1
     109       1      55       1       1.900000         CONSTANT HEAD       1
     110       1      55     180       1.900000         CONSTANT HEAD       1
     111       1      56       1       1.900000         CONSTANT HEAD       1
     112       1      56     180       1.900000         CONSTANT HEAD       1
     113       1      57       1       1.900000         CONSTANT HEAD       1
     114       1      57     180       1.900000         CONSTANT HEAD       1
     115       1      58       1       1.900000         CONSTANT HEAD       1
     116       1      58     180       1.900000         CONSTANT HEAD       1
     117       1      59       1       1.900000         CONSTANT HEAD       1
     118       1      59     180       1.900000         CONSTANT HEAD       1
     119       1      60       1       1.900000         CONSTANT HEAD       1
     120       1      60     180       1.900000         CONSTANT HEAD       1
     121       1      61       1       1.900000         CONSTANT HEAD       1
     122       1      61     180       1.900000         CONSTANT HEAD       1
     123       1      62       1       1.900000         CONSTANT HEAD       1
     124       1      62     180       1.900000         CONSTANT HEAD       1
     125       1      63       1       1.900000         CONSTANT HEAD       1
     126       1      63     180       1.900000         CONSTANT HEAD       1
     127       1      64       1       1.900000         CONSTANT HEAD       1
     128       1      64     180       1.900000         CONSTANT HEAD       1
     129       1      65       1       1.900000         CONSTANT HEAD       1
     130       1      65     180       1.900000         CONSTANT HEAD       1
     131       1      66       1       1.900000         CONSTANT HEAD       1
     132       1      66     180       1.900000         CONSTANT HEAD       1
     133       1      67       1       1.900000         CONSTANT HEAD       1
     134       1      67     180       1.900000         CONSTANT HEAD       1
     135       1      68       1       1.900000         CONSTANT HEAD       1
     136       1      68     180       1.900000         CONSTANT HEAD       1
     137       1      69       1       1.900000         CONSTANT HEAD       1
     138       1      69     180       1.900000         CONSTANT HEAD       1
     139       1      70       1       1.900000         CONSTANT HEAD       1
     140       1      70     180       1.900000         CONSTANT HEAD       1
     141       1      71       1       1.900000         CONSTANT HEAD       1
     142       1      71     180       1.900000         CONSTANT HEAD       1
     143       1      72       1       1.900000         CONSTANT HEAD       1
     144       1      72     180       1.900000         CONSTANT HEAD       1
     145       1      73       1       1.900000         CONSTANT HEAD       1
     146       1      73     180       1.900000         CONSTANT HEAD       1
     147       1      74       1       1.900000         CONSTANT HEAD       1
     148       1      74     180       1.900000         CONSTANT HEAD       1
     149       1      75       1       1.900000         CONSTANT HEAD       1
     150       1      75     180       1.900000         CONSTANT HEAD       1
     151       1      76       1       1.900000         CONSTANT HEAD       1
     152       1      76     180       1.900000         CONSTANT HEAD       1
     153       1      77       1       1.900000         CONSTANT HEAD       1
     154       1      77     180       1.900000         CONSTANT HEAD       1
     155       1      78       1       1.900000         CONSTANT HEAD       1
     156       1      78     180       1.900000         CONSTANT HEAD       1
     157       1      79       1       1.900000         CONSTANT HEAD       1
     158       1      79     180       1.900000         CONSTANT HEAD       1
     159       1      80       1       1.900000         CONSTANT HEAD       1
     160       1      80     180       1.900000         CONSTANT HEAD       1
     161       1      81       1       1.900000         CONSTANT HEAD       1
     162       1      81     180       1.900000         CONSTANT HEAD       1
     163       1      82       1       1.900000         CONSTANT HEAD       1
     164       1      82     180       1.900000         CONSTANT HEAD       1
     165       1      83       1       1.900000         CONSTANT HEAD       1
     166       1      83     180       1.900000         CONSTANT HEAD       1
     167       1      84       1       1.900000         CONSTANT HEAD       1
     168       1      84     180       1.900000         CONSTANT HEAD       1
     169       1      85       1       1.900000         CONSTANT HEAD       1
     170       1      85     180       1.900000         CONSTANT HEAD       1
     171       1      86       1       1.900000         CONSTANT HEAD       1
     172       1      86     180       1.900000         CONSTANT HEAD       1
     173       1      87       1       1.900000         CONSTANT HEAD       1
     174       1      87     180       1.900000         CONSTANT HEAD       1
     175       1      88       1       1.900000         CONSTANT HEAD       1
     176       1      88     180       1.900000         CONSTANT HEAD       1
     177       1      89       1       1.900000         CONSTANT HEAD       1
     178       1      89     180       1.900000         CONSTANT HEAD       1
     179       1      90       1       1.900000         CONSTANT HEAD       1
     180       1      90     180       1.900000         CONSTANT HEAD       1
     181       1      91       1       1.900000         CONSTANT HEAD       1
     182       1      91     180       1.900000         CONSTANT HEAD       1
     183       1      92       1       1.900000         CONSTANT HEAD       1
     184       1      92     180       1.900000         CONSTANT HEAD       1
     185       1      93       1       1.900000         CONSTANT HEAD       1
     186       1      93     180       1.900000         CONSTANT HEAD       1
     187       1      94       1       1.900000         CONSTANT HEAD       1
     188       1      94     180       1.900000         CONSTANT HEAD       1
     189       1      95       1       1.900000         CONSTANT HEAD       1
     190       1      95     180       1.900000         CONSTANT HEAD       1
     191       1      96       1       1.900000         CONSTANT HEAD       1
     192       1      96     180       1.900000         CONSTANT HEAD       1
     193       1      97       1       1.900000         CONSTANT HEAD       1
     194       1      97     180       1.900000         CONSTANT HEAD       1
     195       1      98       1       1.900000         CONSTANT HEAD       1
     196       1      98     180       1.900000         CONSTANT HEAD       1
     197       1      99       1       1.900000         CONSTANT HEAD       1
     198       1      99     180       1.900000         CONSTANT HEAD       1
     199       1     100       1       1.900000         CONSTANT HEAD       1
     200       1     100     180       1.900000         CONSTANT HEAD       1
     201       1     101       1       1.900000         CONSTANT HEAD       1
     202       1     101     180       1.900000         CONSTANT HEAD       1
     203       1     102       1       1.900000         CONSTANT HEAD       1
     204       1     102     180       1.900000         CONSTANT HEAD       1
     205       1     103       1       1.900000         CONSTANT HEAD       1
     206       1     103     180       1.900000         CONSTANT HEAD       1
     207       1     104       1       1.900000         CONSTANT HEAD       1
     208       1     104     180       1.900000         CONSTANT HEAD       1
     209       1     105       1       1.900000         CONSTANT HEAD       1
     210       1     105     180       1.900000         CONSTANT HEAD       1
     211       1     106       1       1.900000         CONSTANT HEAD       1
     212       1     106     180       1.900000         CONSTANT HEAD       1
     213       1     107       1       1.900000         CONSTANT HEAD       1
     214       1     107     180       1.900000         CONSTANT HEAD       1
     215       1     108       1       1.900000         CONSTANT HEAD       1
     216       1     108     180       1.900000         CONSTANT HEAD       1
     217       1     109       1       1.900000         CONSTANT HEAD       1
     218       1     109     180       1.900000         CONSTANT HEAD       1
     219       1     110       1       1.900000         CONSTANT HEAD       1
     220       1     110     180       1.900000         CONSTANT HEAD       1
     221       1     111       1       1.900000         CONSTANT HEAD       1
     222       1     111     180       1.900000         CONSTANT HEAD       1
     223       1     112       1       1.900000         CONSTANT HEAD       1
     224       1     112     180       1.900000         CONSTANT HEAD       1
     225       1     113       1       1.900000         CONSTANT HEAD       1
     226       1     113     180       1.900000         CONSTANT HEAD       1
     227       1     114       1       1.900000         CONSTANT HEAD       1
     228       1     114     180       1.900000         CONSTANT HEAD       1
     229       1     115       1       1.900000         CONSTANT HEAD       1
     230       1     115     180       1.900000         CONSTANT HEAD       1
     231       1     116       1       1.900000         CONSTANT HEAD       1
     232       1     116     180       1.900000         CONSTANT HEAD       1
     233       1     117       1       1.900000         CONSTANT HEAD       1
     234       1     117     180       1.900000         CONSTANT HEAD       1
     235       1     118       1       1.900000         CONSTANT HEAD       1
     236       1     118     180       1.900000         CONSTANT HEAD       1
     237       1     119       1       1.900000         CONSTANT HEAD       1
     238       1     119     180       1.900000         CONSTANT HEAD       1
     239       1     120       1       1.900000         CONSTANT HEAD       1
     240       1     120     180       1.900000         CONSTANT HEAD       1
     241       1     121       1       1.900000         CONSTANT HEAD       1
     242       1     121     180       1.900000         CONSTANT HEAD       1
     243       1     122       1       1.900000         CONSTANT HEAD       1
     244       1     122     180       1.900000         CONSTANT HEAD       1
     245       1     123       1       1.900000         CONSTANT HEAD       1
     246       1     123     180       1.900000         CONSTANT HEAD       1
     247       1     124       1       1.900000         CONSTANT HEAD       1
     248       1     124     180       1.900000         CONSTANT HEAD       1
     249       1     125       1       1.900000         CONSTANT HEAD       1
     250       1     125     180       1.900000         CONSTANT HEAD       1
     251       1     126       1       1.900000         CONSTANT HEAD       1
     252       1     126     180       1.900000         CONSTANT HEAD       1
     253       1     127       1       1.900000         CONSTANT HEAD       1
     254       1     127     180       1.900000         CONSTANT HEAD       1
     255       1     128       1       1.900000         CONSTANT HEAD       1
     256       1     128     180       1.900000         CONSTANT HEAD       1
     257       1     129       1       1.900000         CONSTANT HEAD       1
     258       1     129     180       1.900000         CONSTANT HEAD       1
     259       1     130       1       1.900000         CONSTANT HEAD       1
     260       1     130     180       1.900000         CONSTANT HEAD       1
     261       1     131       1       1.900000         CONSTANT HEAD       1
     262       1     131     180       1.900000         CONSTANT HEAD       1
     263       1     132       1       1.900000         CONSTANT HEAD       1
     264       1     132     180       1.900000         CONSTANT HEAD       1
     265       1     133       1       1.900000         CONSTANT HEAD       1
     266       1     133     180       1.900000         CONSTANT HEAD       1
     267       1     134       1       1.900000         CONSTANT HEAD       1
     268       1     134     180       1.900000         CONSTANT HEAD       1
     269       1     135       1       1.900000         CONSTANT HEAD       1
     270       1     135     180       1.900000         CONSTANT HEAD       1
     271       1     136       1       1.900000         CONSTANT HEAD       1
     272       1     136     180       1.900000         CONSTANT HEAD       1
     273       1     137       1       1.900000         CONSTANT HEAD       1
     274       1     137     180       1.900000         CONSTANT HEAD       1
     275       1     138       1       1.900000         CONSTANT HEAD       1
     276       1     138     180       1.900000         CONSTANT HEAD       1
     277       1     139       1       1.900000         CONSTANT HEAD       1
     278       1     139     180       1.900000         CONSTANT HEAD       1
     279       1     140       1       1.900000         CONSTANT HEAD       1
     280       1     140     180       1.900000         CONSTANT HEAD       1
     281       1     141       1       1.900000         CONSTANT HEAD       1
     282       1     141     180       1.900000         CONSTANT HEAD       1
     283       1     142       1       1.900000         CONSTANT HEAD       1
     284       1     142     180       1.900000         CONSTANT HEAD       1
     285       1     143       1       1.900000         CONSTANT HEAD       1
     286       1     143     180       1.900000         CONSTANT HEAD       1
     287       1     144       1       1.900000         CONSTANT HEAD       1
     288       1     144     180       1.900000         CONSTANT HEAD       1
     289       1     145       1       1.900000         CONSTANT HEAD       1
     290       1     145     180       1.900000         CONSTANT HEAD       1
     291       1     146       1       1.900000         CONSTANT HEAD       1
     292       1     146     180       1.900000         CONSTANT HEAD       1
     293       1     147       1       1.900000         CONSTANT HEAD       1
     294       1     147     180       1.900000         CONSTANT HEAD       1
     295       1     148       1       1.900000         CONSTANT HEAD       1
     296       1     148     180       1.900000         CONSTANT HEAD       1
     297       1     149       1       1.900000         CONSTANT HEAD       1
     298       1     149     180       1.900000         CONSTANT HEAD       1
     299       1     150       1       1.900000         CONSTANT HEAD       1
     300       1     150     180       1.900000         CONSTANT HEAD       1
     301       1     151       1       1.900000         CONSTANT HEAD       1
     302       1     151     180       1.900000         CONSTANT HEAD       1
     303       1     152       1       1.900000         CONSTANT HEAD       1
     304       1     152     180       1.900000         CONSTANT HEAD       1
     305       1     153       1       1.900000         CONSTANT HEAD       1
     306       1     153     180       1.900000         CONSTANT HEAD       1
     307       1     154       1       1.900000         CONSTANT HEAD       1
     308       1     154     180       1.900000         CONSTANT HEAD       1
     309       1     155       1       1.900000         CONSTANT HEAD       1
     310       1     155     180       1.900000         CONSTANT HEAD       1
     311       1     156       1       1.900000         CONSTANT HEAD       1
     312       1     156     180       1.900000         CONSTANT HEAD       1
     313       1     157       1       1.900000         CONSTANT HEAD       1
     314       1     157     180       1.900000         CONSTANT HEAD       1
     315       1     158       1       1.900000         CONSTANT HEAD       1
     316       1     158     180       1.900000         CONSTANT HEAD       1
     317       1     159       1       1.900000         CONSTANT HEAD       1
     318       1     159     180       1.900000         CONSTANT HEAD       1
     319       1     160       1       1.900000         CONSTANT HEAD       1
     320       1     160     180       1.900000         CONSTANT HEAD       1
     321       1     161       1       1.900000         CONSTANT HEAD       1
     322       1     161     180       1.900000         CONSTANT HEAD       1
     323       1     162       1       1.900000         CONSTANT HEAD       1
     324       1     162     180       1.900000         CONSTANT HEAD       1
     325       1     163       1       1.900000         CONSTANT HEAD       1
     326       1     163     180       1.900000         CONSTANT HEAD       1
     327       1     164       1       1.900000         CONSTANT HEAD       1
     328       1     164     180       1.900000         CONSTANT HEAD       1
     329       1     165       1       1.900000         CONSTANT HEAD       1
     330       1     165     180       1.900000         CONSTANT HEAD       1
     331       1     166       1       1.900000         CONSTANT HEAD       1
     332       1     166     180       1.900000         CONSTANT HEAD       1
     333       1     167       1       1.900000         CONSTANT HEAD       1
     334       1     167     180       1.900000         CONSTANT HEAD       1
     335       1     168       1       1.900000         CONSTANT HEAD       1
     336       1     168     180       1.900000         CONSTANT HEAD       1
     337       1     169       1       1.900000         CONSTANT HEAD       1
     338       1     169     180       1.900000         CONSTANT HEAD       1
     339       1     170       1       1.900000         CONSTANT HEAD       1
     340       1     170     180       1.900000         CONSTANT HEAD       1
     341       1     171       1       1.900000         CONSTANT HEAD       1
     342       1     171     180       1.900000         CONSTANT HEAD       1
     343       1     172       1       1.900000         CONSTANT HEAD       1
     344       1     172     180       1.900000         CONSTANT HEAD       1
     345       1     173       1       1.900000         CONSTANT HEAD       1
     346       1     173     180       1.900000         CONSTANT HEAD       1
     347       1     174       1       1.900000         CONSTANT HEAD       1
     348       1     174     180       1.900000         CONSTANT HEAD       1
     349       1     175       1       1.900000         CONSTANT HEAD       1
     350       1     175     180       1.900000         CONSTANT HEAD       1
     351       1     176       1       1.900000         CONSTANT HEAD       1
     352       1     176     180       1.900000         CONSTANT HEAD       1
     353       1     177       1       1.900000         CONSTANT HEAD       1
     354       1     177     180       1.900000         CONSTANT HEAD       1
     355       1     178       1       1.900000         CONSTANT HEAD       1
     356       1     178     180       1.900000         CONSTANT HEAD       1
     357       1     179       1       1.900000         CONSTANT HEAD       1
     358       1     179     180       1.900000         CONSTANT HEAD       1
     359       1     180       1       1.900000         CONSTANT HEAD       1
     360       1     180     180       1.900000         CONSTANT HEAD       1
     361       1      91      91      0.1500000         WELL                1


                                          ================================================
                                                         TIME STEP NO.  001
                                          ================================================

 FROM TIME =   150.00     TO    180.00    


                    "THKSAT          " FLOW TERMS FOR TIME STEP  1, STRESS PERIOD  6 READ UNFORMATTED ON UNIT 10
                    --------------------------------------------------------------------------------------------

                    "QXX             " FLOW TERMS FOR TIME STEP  1, STRESS PERIOD  6 READ UNFORMATTED ON UNIT 10
                    --------------------------------------------------------------------------------------------

                    "QYY             " FLOW TERMS FOR TIME STEP  1, STRESS PERIOD  6 READ UNFORMATTED ON UNIT 10
                    --------------------------------------------------------------------------------------------

                    "STO             " FLOW TERMS FOR TIME STEP  1, STRESS PERIOD  6 READ UNFORMATTED ON UNIT 10
                    --------------------------------------------------------------------------------------------

 MAXIMUM STEPSIZE DURING WHICH ANY PARTICLE CANNOT MOVE MORE THAN ONE CELL
 =  1.136    (WHEN MIN. R.F.=1)  AT K=   1, I=  91, J=  90

 MAXIMUM STEPSIZE WHICH MEETS STABILITY CRITERION OF THE ADVECTION TERM
 (FOR PURE FINITE-DIFFERENCE OPTION, MIXELM=0) 
 = 0.4130    (WHEN MIN. R.F.=1)  AT K=   1, I=  91, J=  91

                    "CNH             " FLOW TERMS FOR TIME STEP  1, STRESS PERIOD  6 READ UNFORMATTED ON UNIT 10
                    --------------------------------------------------------------------------------------------

                    "WEL             " FLOW TERMS FOR TIME STEP  1, STRESS PERIOD  6 READ UNFORMATTED ON UNIT 10
                    --------------------------------------------------------------------------------------------


 TOTAL NUMBER OF POINT SOURCES/SINKS PRESENT IN THE FLOW MODEL =   361

 MAXIMUM STEPSIZE WHICH MEETS STABILITY CRITERION OF THE SINK & SOURCE TERM
 = 0.2066    (WHEN MIN. R.F.=1)  AT K=   1, I=  91, J=  91

 MAXIMUM STEPSIZE WHICH MEETS STABILITY CRITERION OF THE DISPERSION TERM
 = 0.2067    (WHEN MIN. R.F.=1)  AT K=   1, I=  91, J=  91


     1 CALLS TO GCG PACKAGE FOR TRANSPORT TIME STEP     1 IN FLOW TIME STEP     1 STRESS PERIOD     6
     10 TOTAL ITERATIONS
  MAXIMUM CONCENTRATION CHANGES FOR EACH ITERATION:
  MAX. CHANGE LAYER,ROW,COL MAX. CHANGE LAYER,ROW,COL MAX. CHANGE LAYER,ROW,COL MAX. CHANGE LAYER,ROW,COL MAX. CHANGE LAYER,ROW,COL
 ------------------------------------------------------------------------------------------------------------------------------------
   0.1423     (  1, 99, 84)  0.6844E-01 (  1, 94, 90)  0.1763E-01 (  1, 95, 88)  0.6786E-02 (  1, 97, 89)  0.1234E-02 (  1, 98, 88)
   0.2724E-03 (  1, 99, 87)  0.5433E-04 (  1,100, 87)  0.1001E-03 (  1,107, 75)  0.1812E-04 (  1,103, 84)  0.3666E-05 (  1, 99, 88)



 >>>>>>>>>>>>>>>>>>>>>>>>>>>>>>>>>>>>>>>>>>>>>>>>>>>>>>>FOR COMPONENT NO. 01<<<<<<<<<<<<<<<<<<<<<<<<<<<<<<<<<<<<<<<<<<<<<<<<<<<<<<<


                                            -------------------------------------------
                                                      TRANSPORT STEP NO.    1
                                            -------------------------------------------

 TOTAL ELAPSED TIME SINCE BEGINNING OF SIMULATION =   180.0000    D   
 .....................................................................

                     CUMULATIVE MASS BUDGETS AT END OF TRANSPORT STEP    1, TIME STEP    1, STRESS PERIOD    6
                     -----------------------------------------------------------------------------------------

                                                             IN                           OUT
                                                      ----------------             ----------------
                               CONSTANT CONCENTRATION:    0.000000                    0.000000    
                                        CONSTANT HEAD:    1791758.                   -1809768.    
                                                WELLS:    37965.54                   -15947.75    
                               MASS STOR (FLOW MODEL):    1657378.                   -2046157.    
                                MASS STORAGE (SOLUTE):    441370.5                   -56488.60    
                            ---------------------------------------------------------------------------
                                              [TOTAL]:    3928472.     KG            -3928360.     KG  

                                                          NET (IN - OUT):    112.0000    
                                                   DISCREPANCY (PERCENT):   0.2851021E-02


                                   ++++++++++++++++++++++++++++++++++++++++++++++++++++++++++++++
                                                       STRESS PERIOD NO.  007
                                   ++++++++++++++++++++++++++++++++++++++++++++++++++++++++++++++


 LENGTH OF CURRENT STRESS PERIOD =   30.00000    
 NUMBER OF TIME STEPS FOR CURRENT STRESS PERIOD =    1
 TIME STEP MULTIPLIER USED IN FLOW SOLUTION =   1.000000    

 ***Type of Transport Simulation is TRANSIENT

 USER-SPECIFIED TRANSPORT STEPSIZE =   30.00000    D   
 MAXIMUM NUMBER OF TRANSPORT STEPS ALLOWED  IN ONE FLOW TIME STEP =     50000
 MULTIPLIER FOR SUCCESSIVE TRANSPORT STEPS  [USED IN IMPLICIT SCHEMES] =     1.000
 MAXIMUM TRANSPORT STEP SIZE  [USED IN IMPLICIT SCHEMES] =   0.000000    D   

       NO    LAYER   ROW   COLUMN   CONCENTRATION       TYPE            COMPONENT
       1       1       1       1       1.900000         CONSTANT HEAD       1
       2       1       1     180       1.900000         CONSTANT HEAD       1
       3       1       2       1       1.900000         CONSTANT HEAD       1
       4       1       2     180       1.900000         CONSTANT HEAD       1
       5       1       3       1       1.900000         CONSTANT HEAD       1
       6       1       3     180       1.900000         CONSTANT HEAD       1
       7       1       4       1       1.900000         CONSTANT HEAD       1
       8       1       4     180       1.900000         CONSTANT HEAD       1
       9       1       5       1       1.900000         CONSTANT HEAD       1
      10       1       5     180       1.900000         CONSTANT HEAD       1
      11       1       6       1       1.900000         CONSTANT HEAD       1
      12       1       6     180       1.900000         CONSTANT HEAD       1
      13       1       7       1       1.900000         CONSTANT HEAD       1
      14       1       7     180       1.900000         CONSTANT HEAD       1
      15       1       8       1       1.900000         CONSTANT HEAD       1
      16       1       8     180       1.900000         CONSTANT HEAD       1
      17       1       9       1       1.900000         CONSTANT HEAD       1
      18       1       9     180       1.900000         CONSTANT HEAD       1
      19       1      10       1       1.900000         CONSTANT HEAD       1
      20       1      10     180       1.900000         CONSTANT HEAD       1
      21       1      11       1       1.900000         CONSTANT HEAD       1
      22       1      11     180       1.900000         CONSTANT HEAD       1
      23       1      12       1       1.900000         CONSTANT HEAD       1
      24       1      12     180       1.900000         CONSTANT HEAD       1
      25       1      13       1       1.900000         CONSTANT HEAD       1
      26       1      13     180       1.900000         CONSTANT HEAD       1
      27       1      14       1       1.900000         CONSTANT HEAD       1
      28       1      14     180       1.900000         CONSTANT HEAD       1
      29       1      15       1       1.900000         CONSTANT HEAD       1
      30       1      15     180       1.900000         CONSTANT HEAD       1
      31       1      16       1       1.900000         CONSTANT HEAD       1
      32       1      16     180       1.900000         CONSTANT HEAD       1
      33       1      17       1       1.900000         CONSTANT HEAD       1
      34       1      17     180       1.900000         CONSTANT HEAD       1
      35       1      18       1       1.900000         CONSTANT HEAD       1
      36       1      18     180       1.900000         CONSTANT HEAD       1
      37       1      19       1       1.900000         CONSTANT HEAD       1
      38       1      19     180       1.900000         CONSTANT HEAD       1
      39       1      20       1       1.900000         CONSTANT HEAD       1
      40       1      20     180       1.900000         CONSTANT HEAD       1
      41       1      21       1       1.900000         CONSTANT HEAD       1
      42       1      21     180       1.900000         CONSTANT HEAD       1
      43       1      22       1       1.900000         CONSTANT HEAD       1
      44       1      22     180       1.900000         CONSTANT HEAD       1
      45       1      23       1       1.900000         CONSTANT HEAD       1
      46       1      23     180       1.900000         CONSTANT HEAD       1
      47       1      24       1       1.900000         CONSTANT HEAD       1
      48       1      24     180       1.900000         CONSTANT HEAD       1
      49       1      25       1       1.900000         CONSTANT HEAD       1
      50       1      25     180       1.900000         CONSTANT HEAD       1
      51       1      26       1       1.900000         CONSTANT HEAD       1
      52       1      26     180       1.900000         CONSTANT HEAD       1
      53       1      27       1       1.900000         CONSTANT HEAD       1
      54       1      27     180       1.900000         CONSTANT HEAD       1
      55       1      28       1       1.900000         CONSTANT HEAD       1
      56       1      28     180       1.900000         CONSTANT HEAD       1
      57       1      29       1       1.900000         CONSTANT HEAD       1
      58       1      29     180       1.900000         CONSTANT HEAD       1
      59       1      30       1       1.900000         CONSTANT HEAD       1
      60       1      30     180       1.900000         CONSTANT HEAD       1
      61       1      31       1       1.900000         CONSTANT HEAD       1
      62       1      31     180       1.900000         CONSTANT HEAD       1
      63       1      32       1       1.900000         CONSTANT HEAD       1
      64       1      32     180       1.900000         CONSTANT HEAD       1
      65       1      33       1       1.900000         CONSTANT HEAD       1
      66       1      33     180       1.900000         CONSTANT HEAD       1
      67       1      34       1       1.900000         CONSTANT HEAD       1
      68       1      34     180       1.900000         CONSTANT HEAD       1
      69       1      35       1       1.900000         CONSTANT HEAD       1
      70       1      35     180       1.900000         CONSTANT HEAD       1
      71       1      36       1       1.900000         CONSTANT HEAD       1
      72       1      36     180       1.900000         CONSTANT HEAD       1
      73       1      37       1       1.900000         CONSTANT HEAD       1
      74       1      37     180       1.900000         CONSTANT HEAD       1
      75       1      38       1       1.900000         CONSTANT HEAD       1
      76       1      38     180       1.900000         CONSTANT HEAD       1
      77       1      39       1       1.900000         CONSTANT HEAD       1
      78       1      39     180       1.900000         CONSTANT HEAD       1
      79       1      40       1       1.900000         CONSTANT HEAD       1
      80       1      40     180       1.900000         CONSTANT HEAD       1
      81       1      41       1       1.900000         CONSTANT HEAD       1
      82       1      41     180       1.900000         CONSTANT HEAD       1
      83       1      42       1       1.900000         CONSTANT HEAD       1
      84       1      42     180       1.900000         CONSTANT HEAD       1
      85       1      43       1       1.900000         CONSTANT HEAD       1
      86       1      43     180       1.900000         CONSTANT HEAD       1
      87       1      44       1       1.900000         CONSTANT HEAD       1
      88       1      44     180       1.900000         CONSTANT HEAD       1
      89       1      45       1       1.900000         CONSTANT HEAD       1
      90       1      45     180       1.900000         CONSTANT HEAD       1
      91       1      46       1       1.900000         CONSTANT HEAD       1
      92       1      46     180       1.900000         CONSTANT HEAD       1
      93       1      47       1       1.900000         CONSTANT HEAD       1
      94       1      47     180       1.900000         CONSTANT HEAD       1
      95       1      48       1       1.900000         CONSTANT HEAD       1
      96       1      48     180       1.900000         CONSTANT HEAD       1
      97       1      49       1       1.900000         CONSTANT HEAD       1
      98       1      49     180       1.900000         CONSTANT HEAD       1
      99       1      50       1       1.900000         CONSTANT HEAD       1
     100       1      50     180       1.900000         CONSTANT HEAD       1
     101       1      51       1       1.900000         CONSTANT HEAD       1
     102       1      51     180       1.900000         CONSTANT HEAD       1
     103       1      52       1       1.900000         CONSTANT HEAD       1
     104       1      52     180       1.900000         CONSTANT HEAD       1
     105       1      53       1       1.900000         CONSTANT HEAD       1
     106       1      53     180       1.900000         CONSTANT HEAD       1
     107       1      54       1       1.900000         CONSTANT HEAD       1
     108       1      54     180       1.900000         CONSTANT HEAD       1
     109       1      55       1       1.900000         CONSTANT HEAD       1
     110       1      55     180       1.900000         CONSTANT HEAD       1
     111       1      56       1       1.900000         CONSTANT HEAD       1
     112       1      56     180       1.900000         CONSTANT HEAD       1
     113       1      57       1       1.900000         CONSTANT HEAD       1
     114       1      57     180       1.900000         CONSTANT HEAD       1
     115       1      58       1       1.900000         CONSTANT HEAD       1
     116       1      58     180       1.900000         CONSTANT HEAD       1
     117       1      59       1       1.900000         CONSTANT HEAD       1
     118       1      59     180       1.900000         CONSTANT HEAD       1
     119       1      60       1       1.900000         CONSTANT HEAD       1
     120       1      60     180       1.900000         CONSTANT HEAD       1
     121       1      61       1       1.900000         CONSTANT HEAD       1
     122       1      61     180       1.900000         CONSTANT HEAD       1
     123       1      62       1       1.900000         CONSTANT HEAD       1
     124       1      62     180       1.900000         CONSTANT HEAD       1
     125       1      63       1       1.900000         CONSTANT HEAD       1
     126       1      63     180       1.900000         CONSTANT HEAD       1
     127       1      64       1       1.900000         CONSTANT HEAD       1
     128       1      64     180       1.900000         CONSTANT HEAD       1
     129       1      65       1       1.900000         CONSTANT HEAD       1
     130       1      65     180       1.900000         CONSTANT HEAD       1
     131       1      66       1       1.900000         CONSTANT HEAD       1
     132       1      66     180       1.900000         CONSTANT HEAD       1
     133       1      67       1       1.900000         CONSTANT HEAD       1
     134       1      67     180       1.900000         CONSTANT HEAD       1
     135       1      68       1       1.900000         CONSTANT HEAD       1
     136       1      68     180       1.900000         CONSTANT HEAD       1
     137       1      69       1       1.900000         CONSTANT HEAD       1
     138       1      69     180       1.900000         CONSTANT HEAD       1
     139       1      70       1       1.900000         CONSTANT HEAD       1
     140       1      70     180       1.900000         CONSTANT HEAD       1
     141       1      71       1       1.900000         CONSTANT HEAD       1
     142       1      71     180       1.900000         CONSTANT HEAD       1
     143       1      72       1       1.900000         CONSTANT HEAD       1
     144       1      72     180       1.900000         CONSTANT HEAD       1
     145       1      73       1       1.900000         CONSTANT HEAD       1
     146       1      73     180       1.900000         CONSTANT HEAD       1
     147       1      74       1       1.900000         CONSTANT HEAD       1
     148       1      74     180       1.900000         CONSTANT HEAD       1
     149       1      75       1       1.900000         CONSTANT HEAD       1
     150       1      75     180       1.900000         CONSTANT HEAD       1
     151       1      76       1       1.900000         CONSTANT HEAD       1
     152       1      76     180       1.900000         CONSTANT HEAD       1
     153       1      77       1       1.900000         CONSTANT HEAD       1
     154       1      77     180       1.900000         CONSTANT HEAD       1
     155       1      78       1       1.900000         CONSTANT HEAD       1
     156       1      78     180       1.900000         CONSTANT HEAD       1
     157       1      79       1       1.900000         CONSTANT HEAD       1
     158       1      79     180       1.900000         CONSTANT HEAD       1
     159       1      80       1       1.900000         CONSTANT HEAD       1
     160       1      80     180       1.900000         CONSTANT HEAD       1
     161       1      81       1       1.900000         CONSTANT HEAD       1
     162       1      81     180       1.900000         CONSTANT HEAD       1
     163       1      82       1       1.900000         CONSTANT HEAD       1
     164       1      82     180       1.900000         CONSTANT HEAD       1
     165       1      83       1       1.900000         CONSTANT HEAD       1
     166       1      83     180       1.900000         CONSTANT HEAD       1
     167       1      84       1       1.900000         CONSTANT HEAD       1
     168       1      84     180       1.900000         CONSTANT HEAD       1
     169       1      85       1       1.900000         CONSTANT HEAD       1
     170       1      85     180       1.900000         CONSTANT HEAD       1
     171       1      86       1       1.900000         CONSTANT HEAD       1
     172       1      86     180       1.900000         CONSTANT HEAD       1
     173       1      87       1       1.900000         CONSTANT HEAD       1
     174       1      87     180       1.900000         CONSTANT HEAD       1
     175       1      88       1       1.900000         CONSTANT HEAD       1
     176       1      88     180       1.900000         CONSTANT HEAD       1
     177       1      89       1       1.900000         CONSTANT HEAD       1
     178       1      89     180       1.900000         CONSTANT HEAD       1
     179       1      90       1       1.900000         CONSTANT HEAD       1
     180       1      90     180       1.900000         CONSTANT HEAD       1
     181       1      91       1       1.900000         CONSTANT HEAD       1
     182       1      91     180       1.900000         CONSTANT HEAD       1
     183       1      92       1       1.900000         CONSTANT HEAD       1
     184       1      92     180       1.900000         CONSTANT HEAD       1
     185       1      93       1       1.900000         CONSTANT HEAD       1
     186       1      93     180       1.900000         CONSTANT HEAD       1
     187       1      94       1       1.900000         CONSTANT HEAD       1
     188       1      94     180       1.900000         CONSTANT HEAD       1
     189       1      95       1       1.900000         CONSTANT HEAD       1
     190       1      95     180       1.900000         CONSTANT HEAD       1
     191       1      96       1       1.900000         CONSTANT HEAD       1
     192       1      96     180       1.900000         CONSTANT HEAD       1
     193       1      97       1       1.900000         CONSTANT HEAD       1
     194       1      97     180       1.900000         CONSTANT HEAD       1
     195       1      98       1       1.900000         CONSTANT HEAD       1
     196       1      98     180       1.900000         CONSTANT HEAD       1
     197       1      99       1       1.900000         CONSTANT HEAD       1
     198       1      99     180       1.900000         CONSTANT HEAD       1
     199       1     100       1       1.900000         CONSTANT HEAD       1
     200       1     100     180       1.900000         CONSTANT HEAD       1
     201       1     101       1       1.900000         CONSTANT HEAD       1
     202       1     101     180       1.900000         CONSTANT HEAD       1
     203       1     102       1       1.900000         CONSTANT HEAD       1
     204       1     102     180       1.900000         CONSTANT HEAD       1
     205       1     103       1       1.900000         CONSTANT HEAD       1
     206       1     103     180       1.900000         CONSTANT HEAD       1
     207       1     104       1       1.900000         CONSTANT HEAD       1
     208       1     104     180       1.900000         CONSTANT HEAD       1
     209       1     105       1       1.900000         CONSTANT HEAD       1
     210       1     105     180       1.900000         CONSTANT HEAD       1
     211       1     106       1       1.900000         CONSTANT HEAD       1
     212       1     106     180       1.900000         CONSTANT HEAD       1
     213       1     107       1       1.900000         CONSTANT HEAD       1
     214       1     107     180       1.900000         CONSTANT HEAD       1
     215       1     108       1       1.900000         CONSTANT HEAD       1
     216       1     108     180       1.900000         CONSTANT HEAD       1
     217       1     109       1       1.900000         CONSTANT HEAD       1
     218       1     109     180       1.900000         CONSTANT HEAD       1
     219       1     110       1       1.900000         CONSTANT HEAD       1
     220       1     110     180       1.900000         CONSTANT HEAD       1
     221       1     111       1       1.900000         CONSTANT HEAD       1
     222       1     111     180       1.900000         CONSTANT HEAD       1
     223       1     112       1       1.900000         CONSTANT HEAD       1
     224       1     112     180       1.900000         CONSTANT HEAD       1
     225       1     113       1       1.900000         CONSTANT HEAD       1
     226       1     113     180       1.900000         CONSTANT HEAD       1
     227       1     114       1       1.900000         CONSTANT HEAD       1
     228       1     114     180       1.900000         CONSTANT HEAD       1
     229       1     115       1       1.900000         CONSTANT HEAD       1
     230       1     115     180       1.900000         CONSTANT HEAD       1
     231       1     116       1       1.900000         CONSTANT HEAD       1
     232       1     116     180       1.900000         CONSTANT HEAD       1
     233       1     117       1       1.900000         CONSTANT HEAD       1
     234       1     117     180       1.900000         CONSTANT HEAD       1
     235       1     118       1       1.900000         CONSTANT HEAD       1
     236       1     118     180       1.900000         CONSTANT HEAD       1
     237       1     119       1       1.900000         CONSTANT HEAD       1
     238       1     119     180       1.900000         CONSTANT HEAD       1
     239       1     120       1       1.900000         CONSTANT HEAD       1
     240       1     120     180       1.900000         CONSTANT HEAD       1
     241       1     121       1       1.900000         CONSTANT HEAD       1
     242       1     121     180       1.900000         CONSTANT HEAD       1
     243       1     122       1       1.900000         CONSTANT HEAD       1
     244       1     122     180       1.900000         CONSTANT HEAD       1
     245       1     123       1       1.900000         CONSTANT HEAD       1
     246       1     123     180       1.900000         CONSTANT HEAD       1
     247       1     124       1       1.900000         CONSTANT HEAD       1
     248       1     124     180       1.900000         CONSTANT HEAD       1
     249       1     125       1       1.900000         CONSTANT HEAD       1
     250       1     125     180       1.900000         CONSTANT HEAD       1
     251       1     126       1       1.900000         CONSTANT HEAD       1
     252       1     126     180       1.900000         CONSTANT HEAD       1
     253       1     127       1       1.900000         CONSTANT HEAD       1
     254       1     127     180       1.900000         CONSTANT HEAD       1
     255       1     128       1       1.900000         CONSTANT HEAD       1
     256       1     128     180       1.900000         CONSTANT HEAD       1
     257       1     129       1       1.900000         CONSTANT HEAD       1
     258       1     129     180       1.900000         CONSTANT HEAD       1
     259       1     130       1       1.900000         CONSTANT HEAD       1
     260       1     130     180       1.900000         CONSTANT HEAD       1
     261       1     131       1       1.900000         CONSTANT HEAD       1
     262       1     131     180       1.900000         CONSTANT HEAD       1
     263       1     132       1       1.900000         CONSTANT HEAD       1
     264       1     132     180       1.900000         CONSTANT HEAD       1
     265       1     133       1       1.900000         CONSTANT HEAD       1
     266       1     133     180       1.900000         CONSTANT HEAD       1
     267       1     134       1       1.900000         CONSTANT HEAD       1
     268       1     134     180       1.900000         CONSTANT HEAD       1
     269       1     135       1       1.900000         CONSTANT HEAD       1
     270       1     135     180       1.900000         CONSTANT HEAD       1
     271       1     136       1       1.900000         CONSTANT HEAD       1
     272       1     136     180       1.900000         CONSTANT HEAD       1
     273       1     137       1       1.900000         CONSTANT HEAD       1
     274       1     137     180       1.900000         CONSTANT HEAD       1
     275       1     138       1       1.900000         CONSTANT HEAD       1
     276       1     138     180       1.900000         CONSTANT HEAD       1
     277       1     139       1       1.900000         CONSTANT HEAD       1
     278       1     139     180       1.900000         CONSTANT HEAD       1
     279       1     140       1       1.900000         CONSTANT HEAD       1
     280       1     140     180       1.900000         CONSTANT HEAD       1
     281       1     141       1       1.900000         CONSTANT HEAD       1
     282       1     141     180       1.900000         CONSTANT HEAD       1
     283       1     142       1       1.900000         CONSTANT HEAD       1
     284       1     142     180       1.900000         CONSTANT HEAD       1
     285       1     143       1       1.900000         CONSTANT HEAD       1
     286       1     143     180       1.900000         CONSTANT HEAD       1
     287       1     144       1       1.900000         CONSTANT HEAD       1
     288       1     144     180       1.900000         CONSTANT HEAD       1
     289       1     145       1       1.900000         CONSTANT HEAD       1
     290       1     145     180       1.900000         CONSTANT HEAD       1
     291       1     146       1       1.900000         CONSTANT HEAD       1
     292       1     146     180       1.900000         CONSTANT HEAD       1
     293       1     147       1       1.900000         CONSTANT HEAD       1
     294       1     147     180       1.900000         CONSTANT HEAD       1
     295       1     148       1       1.900000         CONSTANT HEAD       1
     296       1     148     180       1.900000         CONSTANT HEAD       1
     297       1     149       1       1.900000         CONSTANT HEAD       1
     298       1     149     180       1.900000         CONSTANT HEAD       1
     299       1     150       1       1.900000         CONSTANT HEAD       1
     300       1     150     180       1.900000         CONSTANT HEAD       1
     301       1     151       1       1.900000         CONSTANT HEAD       1
     302       1     151     180       1.900000         CONSTANT HEAD       1
     303       1     152       1       1.900000         CONSTANT HEAD       1
     304       1     152     180       1.900000         CONSTANT HEAD       1
     305       1     153       1       1.900000         CONSTANT HEAD       1
     306       1     153     180       1.900000         CONSTANT HEAD       1
     307       1     154       1       1.900000         CONSTANT HEAD       1
     308       1     154     180       1.900000         CONSTANT HEAD       1
     309       1     155       1       1.900000         CONSTANT HEAD       1
     310       1     155     180       1.900000         CONSTANT HEAD       1
     311       1     156       1       1.900000         CONSTANT HEAD       1
     312       1     156     180       1.900000         CONSTANT HEAD       1
     313       1     157       1       1.900000         CONSTANT HEAD       1
     314       1     157     180       1.900000         CONSTANT HEAD       1
     315       1     158       1       1.900000         CONSTANT HEAD       1
     316       1     158     180       1.900000         CONSTANT HEAD       1
     317       1     159       1       1.900000         CONSTANT HEAD       1
     318       1     159     180       1.900000         CONSTANT HEAD       1
     319       1     160       1       1.900000         CONSTANT HEAD       1
     320       1     160     180       1.900000         CONSTANT HEAD       1
     321       1     161       1       1.900000         CONSTANT HEAD       1
     322       1     161     180       1.900000         CONSTANT HEAD       1
     323       1     162       1       1.900000         CONSTANT HEAD       1
     324       1     162     180       1.900000         CONSTANT HEAD       1
     325       1     163       1       1.900000         CONSTANT HEAD       1
     326       1     163     180       1.900000         CONSTANT HEAD       1
     327       1     164       1       1.900000         CONSTANT HEAD       1
     328       1     164     180       1.900000         CONSTANT HEAD       1
     329       1     165       1       1.900000         CONSTANT HEAD       1
     330       1     165     180       1.900000         CONSTANT HEAD       1
     331       1     166       1       1.900000         CONSTANT HEAD       1
     332       1     166     180       1.900000         CONSTANT HEAD       1
     333       1     167       1       1.900000         CONSTANT HEAD       1
     334       1     167     180       1.900000         CONSTANT HEAD       1
     335       1     168       1       1.900000         CONSTANT HEAD       1
     336       1     168     180       1.900000         CONSTANT HEAD       1
     337       1     169       1       1.900000         CONSTANT HEAD       1
     338       1     169     180       1.900000         CONSTANT HEAD       1
     339       1     170       1       1.900000         CONSTANT HEAD       1
     340       1     170     180       1.900000         CONSTANT HEAD       1
     341       1     171       1       1.900000         CONSTANT HEAD       1
     342       1     171     180       1.900000         CONSTANT HEAD       1
     343       1     172       1       1.900000         CONSTANT HEAD       1
     344       1     172     180       1.900000         CONSTANT HEAD       1
     345       1     173       1       1.900000         CONSTANT HEAD       1
     346       1     173     180       1.900000         CONSTANT HEAD       1
     347       1     174       1       1.900000         CONSTANT HEAD       1
     348       1     174     180       1.900000         CONSTANT HEAD       1
     349       1     175       1       1.900000         CONSTANT HEAD       1
     350       1     175     180       1.900000         CONSTANT HEAD       1
     351       1     176       1       1.900000         CONSTANT HEAD       1
     352       1     176     180       1.900000         CONSTANT HEAD       1
     353       1     177       1       1.900000         CONSTANT HEAD       1
     354       1     177     180       1.900000         CONSTANT HEAD       1
     355       1     178       1       1.900000         CONSTANT HEAD       1
     356       1     178     180       1.900000         CONSTANT HEAD       1
     357       1     179       1       1.900000         CONSTANT HEAD       1
     358       1     179     180       1.900000         CONSTANT HEAD       1
     359       1     180       1       1.900000         CONSTANT HEAD       1
     360       1     180     180       1.900000         CONSTANT HEAD       1
     361       1      91      91      0.1500000         WELL                1


                                          ================================================
                                                         TIME STEP NO.  001
                                          ================================================

 FROM TIME =   180.00     TO    210.00    


                    "THKSAT          " FLOW TERMS FOR TIME STEP  1, STRESS PERIOD  7 READ UNFORMATTED ON UNIT 10
                    --------------------------------------------------------------------------------------------

                    "QXX             " FLOW TERMS FOR TIME STEP  1, STRESS PERIOD  7 READ UNFORMATTED ON UNIT 10
                    --------------------------------------------------------------------------------------------

                    "QYY             " FLOW TERMS FOR TIME STEP  1, STRESS PERIOD  7 READ UNFORMATTED ON UNIT 10
                    --------------------------------------------------------------------------------------------

                    "STO             " FLOW TERMS FOR TIME STEP  1, STRESS PERIOD  7 READ UNFORMATTED ON UNIT 10
                    --------------------------------------------------------------------------------------------

 MAXIMUM STEPSIZE DURING WHICH ANY PARTICLE CANNOT MOVE MORE THAN ONE CELL
 =  1.116    (WHEN MIN. R.F.=1)  AT K=   1, I=  91, J=  90

 MAXIMUM STEPSIZE WHICH MEETS STABILITY CRITERION OF THE ADVECTION TERM
 (FOR PURE FINITE-DIFFERENCE OPTION, MIXELM=0) 
 = 0.4057    (WHEN MIN. R.F.=1)  AT K=   1, I=  91, J=  91

                    "CNH             " FLOW TERMS FOR TIME STEP  1, STRESS PERIOD  7 READ UNFORMATTED ON UNIT 10
                    --------------------------------------------------------------------------------------------

                    "WEL             " FLOW TERMS FOR TIME STEP  1, STRESS PERIOD  7 READ UNFORMATTED ON UNIT 10
                    --------------------------------------------------------------------------------------------


 TOTAL NUMBER OF POINT SOURCES/SINKS PRESENT IN THE FLOW MODEL =   361

 MAXIMUM STEPSIZE WHICH MEETS STABILITY CRITERION OF THE SINK & SOURCE TERM
 = 0.2030    (WHEN MIN. R.F.=1)  AT K=   1, I=  91, J=  91

 MAXIMUM STEPSIZE WHICH MEETS STABILITY CRITERION OF THE DISPERSION TERM
 = 0.2031    (WHEN MIN. R.F.=1)  AT K=   1, I=  91, J=  91


     1 CALLS TO GCG PACKAGE FOR TRANSPORT TIME STEP     1 IN FLOW TIME STEP     1 STRESS PERIOD     7
     11 TOTAL ITERATIONS
  MAXIMUM CONCENTRATION CHANGES FOR EACH ITERATION:
  MAX. CHANGE LAYER,ROW,COL MAX. CHANGE LAYER,ROW,COL MAX. CHANGE LAYER,ROW,COL MAX. CHANGE LAYER,ROW,COL MAX. CHANGE LAYER,ROW,COL
 ------------------------------------------------------------------------------------------------------------------------------------
   0.1165     (  1, 99, 82)  0.6304E-01 (  1, 90, 94)  0.2644E-01 (  1, 88, 96)  0.9738E-02 (  1, 98, 86)  0.2926E-02 (  1, 97, 87)
   0.8816E-03 (  1, 98, 86)  0.1637E-03 (  1, 99, 85)  0.1737E-03 (  1,103, 80)  0.4154E-04 (  1,101, 82)  0.1007E-04 (  1,103, 81)
   0.1609E-05 (  1,101, 81)



 >>>>>>>>>>>>>>>>>>>>>>>>>>>>>>>>>>>>>>>>>>>>>>>>>>>>>>>FOR COMPONENT NO. 01<<<<<<<<<<<<<<<<<<<<<<<<<<<<<<<<<<<<<<<<<<<<<<<<<<<<<<<


                                            -------------------------------------------
                                                      TRANSPORT STEP NO.    1
                                            -------------------------------------------

 TOTAL ELAPSED TIME SINCE BEGINNING OF SIMULATION =   210.0000    D   
 .....................................................................

                     CUMULATIVE MASS BUDGETS AT END OF TRANSPORT STEP    1, TIME STEP    1, STRESS PERIOD    7
                     -----------------------------------------------------------------------------------------

                                                             IN                           OUT
                                                      ----------------             ----------------
                               CONSTANT CONCENTRATION:    0.000000                    0.000000    
                                        CONSTANT HEAD:    1987527.                   -2014220.    
                                                WELLS:    46612.47                   -15947.75    
                               MASS STOR (FLOW MODEL):    1774969.                   -2264254.    
                                MASS STORAGE (SOLUTE):    542015.4                   -56552.35    
                            ---------------------------------------------------------------------------
                                              [TOTAL]:    4351124.     KG            -4350974.     KG  

                                                          NET (IN - OUT):    150.5000    
                                                   DISCREPANCY (PERCENT):   0.3458936E-02


                                   ++++++++++++++++++++++++++++++++++++++++++++++++++++++++++++++
                                                       STRESS PERIOD NO.  008
                                   ++++++++++++++++++++++++++++++++++++++++++++++++++++++++++++++


 LENGTH OF CURRENT STRESS PERIOD =   30.00000    
 NUMBER OF TIME STEPS FOR CURRENT STRESS PERIOD =    1
 TIME STEP MULTIPLIER USED IN FLOW SOLUTION =   1.000000    

 ***Type of Transport Simulation is TRANSIENT

 USER-SPECIFIED TRANSPORT STEPSIZE =   30.00000    D   
 MAXIMUM NUMBER OF TRANSPORT STEPS ALLOWED  IN ONE FLOW TIME STEP =     50000
 MULTIPLIER FOR SUCCESSIVE TRANSPORT STEPS  [USED IN IMPLICIT SCHEMES] =     1.000
 MAXIMUM TRANSPORT STEP SIZE  [USED IN IMPLICIT SCHEMES] =   0.000000    D   

       NO    LAYER   ROW   COLUMN   CONCENTRATION       TYPE            COMPONENT
       1       1       1       1       1.900000         CONSTANT HEAD       1
       2       1       1     180       1.900000         CONSTANT HEAD       1
       3       1       2       1       1.900000         CONSTANT HEAD       1
       4       1       2     180       1.900000         CONSTANT HEAD       1
       5       1       3       1       1.900000         CONSTANT HEAD       1
       6       1       3     180       1.900000         CONSTANT HEAD       1
       7       1       4       1       1.900000         CONSTANT HEAD       1
       8       1       4     180       1.900000         CONSTANT HEAD       1
       9       1       5       1       1.900000         CONSTANT HEAD       1
      10       1       5     180       1.900000         CONSTANT HEAD       1
      11       1       6       1       1.900000         CONSTANT HEAD       1
      12       1       6     180       1.900000         CONSTANT HEAD       1
      13       1       7       1       1.900000         CONSTANT HEAD       1
      14       1       7     180       1.900000         CONSTANT HEAD       1
      15       1       8       1       1.900000         CONSTANT HEAD       1
      16       1       8     180       1.900000         CONSTANT HEAD       1
      17       1       9       1       1.900000         CONSTANT HEAD       1
      18       1       9     180       1.900000         CONSTANT HEAD       1
      19       1      10       1       1.900000         CONSTANT HEAD       1
      20       1      10     180       1.900000         CONSTANT HEAD       1
      21       1      11       1       1.900000         CONSTANT HEAD       1
      22       1      11     180       1.900000         CONSTANT HEAD       1
      23       1      12       1       1.900000         CONSTANT HEAD       1
      24       1      12     180       1.900000         CONSTANT HEAD       1
      25       1      13       1       1.900000         CONSTANT HEAD       1
      26       1      13     180       1.900000         CONSTANT HEAD       1
      27       1      14       1       1.900000         CONSTANT HEAD       1
      28       1      14     180       1.900000         CONSTANT HEAD       1
      29       1      15       1       1.900000         CONSTANT HEAD       1
      30       1      15     180       1.900000         CONSTANT HEAD       1
      31       1      16       1       1.900000         CONSTANT HEAD       1
      32       1      16     180       1.900000         CONSTANT HEAD       1
      33       1      17       1       1.900000         CONSTANT HEAD       1
      34       1      17     180       1.900000         CONSTANT HEAD       1
      35       1      18       1       1.900000         CONSTANT HEAD       1
      36       1      18     180       1.900000         CONSTANT HEAD       1
      37       1      19       1       1.900000         CONSTANT HEAD       1
      38       1      19     180       1.900000         CONSTANT HEAD       1
      39       1      20       1       1.900000         CONSTANT HEAD       1
      40       1      20     180       1.900000         CONSTANT HEAD       1
      41       1      21       1       1.900000         CONSTANT HEAD       1
      42       1      21     180       1.900000         CONSTANT HEAD       1
      43       1      22       1       1.900000         CONSTANT HEAD       1
      44       1      22     180       1.900000         CONSTANT HEAD       1
      45       1      23       1       1.900000         CONSTANT HEAD       1
      46       1      23     180       1.900000         CONSTANT HEAD       1
      47       1      24       1       1.900000         CONSTANT HEAD       1
      48       1      24     180       1.900000         CONSTANT HEAD       1
      49       1      25       1       1.900000         CONSTANT HEAD       1
      50       1      25     180       1.900000         CONSTANT HEAD       1
      51       1      26       1       1.900000         CONSTANT HEAD       1
      52       1      26     180       1.900000         CONSTANT HEAD       1
      53       1      27       1       1.900000         CONSTANT HEAD       1
      54       1      27     180       1.900000         CONSTANT HEAD       1
      55       1      28       1       1.900000         CONSTANT HEAD       1
      56       1      28     180       1.900000         CONSTANT HEAD       1
      57       1      29       1       1.900000         CONSTANT HEAD       1
      58       1      29     180       1.900000         CONSTANT HEAD       1
      59       1      30       1       1.900000         CONSTANT HEAD       1
      60       1      30     180       1.900000         CONSTANT HEAD       1
      61       1      31       1       1.900000         CONSTANT HEAD       1
      62       1      31     180       1.900000         CONSTANT HEAD       1
      63       1      32       1       1.900000         CONSTANT HEAD       1
      64       1      32     180       1.900000         CONSTANT HEAD       1
      65       1      33       1       1.900000         CONSTANT HEAD       1
      66       1      33     180       1.900000         CONSTANT HEAD       1
      67       1      34       1       1.900000         CONSTANT HEAD       1
      68       1      34     180       1.900000         CONSTANT HEAD       1
      69       1      35       1       1.900000         CONSTANT HEAD       1
      70       1      35     180       1.900000         CONSTANT HEAD       1
      71       1      36       1       1.900000         CONSTANT HEAD       1
      72       1      36     180       1.900000         CONSTANT HEAD       1
      73       1      37       1       1.900000         CONSTANT HEAD       1
      74       1      37     180       1.900000         CONSTANT HEAD       1
      75       1      38       1       1.900000         CONSTANT HEAD       1
      76       1      38     180       1.900000         CONSTANT HEAD       1
      77       1      39       1       1.900000         CONSTANT HEAD       1
      78       1      39     180       1.900000         CONSTANT HEAD       1
      79       1      40       1       1.900000         CONSTANT HEAD       1
      80       1      40     180       1.900000         CONSTANT HEAD       1
      81       1      41       1       1.900000         CONSTANT HEAD       1
      82       1      41     180       1.900000         CONSTANT HEAD       1
      83       1      42       1       1.900000         CONSTANT HEAD       1
      84       1      42     180       1.900000         CONSTANT HEAD       1
      85       1      43       1       1.900000         CONSTANT HEAD       1
      86       1      43     180       1.900000         CONSTANT HEAD       1
      87       1      44       1       1.900000         CONSTANT HEAD       1
      88       1      44     180       1.900000         CONSTANT HEAD       1
      89       1      45       1       1.900000         CONSTANT HEAD       1
      90       1      45     180       1.900000         CONSTANT HEAD       1
      91       1      46       1       1.900000         CONSTANT HEAD       1
      92       1      46     180       1.900000         CONSTANT HEAD       1
      93       1      47       1       1.900000         CONSTANT HEAD       1
      94       1      47     180       1.900000         CONSTANT HEAD       1
      95       1      48       1       1.900000         CONSTANT HEAD       1
      96       1      48     180       1.900000         CONSTANT HEAD       1
      97       1      49       1       1.900000         CONSTANT HEAD       1
      98       1      49     180       1.900000         CONSTANT HEAD       1
      99       1      50       1       1.900000         CONSTANT HEAD       1
     100       1      50     180       1.900000         CONSTANT HEAD       1
     101       1      51       1       1.900000         CONSTANT HEAD       1
     102       1      51     180       1.900000         CONSTANT HEAD       1
     103       1      52       1       1.900000         CONSTANT HEAD       1
     104       1      52     180       1.900000         CONSTANT HEAD       1
     105       1      53       1       1.900000         CONSTANT HEAD       1
     106       1      53     180       1.900000         CONSTANT HEAD       1
     107       1      54       1       1.900000         CONSTANT HEAD       1
     108       1      54     180       1.900000         CONSTANT HEAD       1
     109       1      55       1       1.900000         CONSTANT HEAD       1
     110       1      55     180       1.900000         CONSTANT HEAD       1
     111       1      56       1       1.900000         CONSTANT HEAD       1
     112       1      56     180       1.900000         CONSTANT HEAD       1
     113       1      57       1       1.900000         CONSTANT HEAD       1
     114       1      57     180       1.900000         CONSTANT HEAD       1
     115       1      58       1       1.900000         CONSTANT HEAD       1
     116       1      58     180       1.900000         CONSTANT HEAD       1
     117       1      59       1       1.900000         CONSTANT HEAD       1
     118       1      59     180       1.900000         CONSTANT HEAD       1
     119       1      60       1       1.900000         CONSTANT HEAD       1
     120       1      60     180       1.900000         CONSTANT HEAD       1
     121       1      61       1       1.900000         CONSTANT HEAD       1
     122       1      61     180       1.900000         CONSTANT HEAD       1
     123       1      62       1       1.900000         CONSTANT HEAD       1
     124       1      62     180       1.900000         CONSTANT HEAD       1
     125       1      63       1       1.900000         CONSTANT HEAD       1
     126       1      63     180       1.900000         CONSTANT HEAD       1
     127       1      64       1       1.900000         CONSTANT HEAD       1
     128       1      64     180       1.900000         CONSTANT HEAD       1
     129       1      65       1       1.900000         CONSTANT HEAD       1
     130       1      65     180       1.900000         CONSTANT HEAD       1
     131       1      66       1       1.900000         CONSTANT HEAD       1
     132       1      66     180       1.900000         CONSTANT HEAD       1
     133       1      67       1       1.900000         CONSTANT HEAD       1
     134       1      67     180       1.900000         CONSTANT HEAD       1
     135       1      68       1       1.900000         CONSTANT HEAD       1
     136       1      68     180       1.900000         CONSTANT HEAD       1
     137       1      69       1       1.900000         CONSTANT HEAD       1
     138       1      69     180       1.900000         CONSTANT HEAD       1
     139       1      70       1       1.900000         CONSTANT HEAD       1
     140       1      70     180       1.900000         CONSTANT HEAD       1
     141       1      71       1       1.900000         CONSTANT HEAD       1
     142       1      71     180       1.900000         CONSTANT HEAD       1
     143       1      72       1       1.900000         CONSTANT HEAD       1
     144       1      72     180       1.900000         CONSTANT HEAD       1
     145       1      73       1       1.900000         CONSTANT HEAD       1
     146       1      73     180       1.900000         CONSTANT HEAD       1
     147       1      74       1       1.900000         CONSTANT HEAD       1
     148       1      74     180       1.900000         CONSTANT HEAD       1
     149       1      75       1       1.900000         CONSTANT HEAD       1
     150       1      75     180       1.900000         CONSTANT HEAD       1
     151       1      76       1       1.900000         CONSTANT HEAD       1
     152       1      76     180       1.900000         CONSTANT HEAD       1
     153       1      77       1       1.900000         CONSTANT HEAD       1
     154       1      77     180       1.900000         CONSTANT HEAD       1
     155       1      78       1       1.900000         CONSTANT HEAD       1
     156       1      78     180       1.900000         CONSTANT HEAD       1
     157       1      79       1       1.900000         CONSTANT HEAD       1
     158       1      79     180       1.900000         CONSTANT HEAD       1
     159       1      80       1       1.900000         CONSTANT HEAD       1
     160       1      80     180       1.900000         CONSTANT HEAD       1
     161       1      81       1       1.900000         CONSTANT HEAD       1
     162       1      81     180       1.900000         CONSTANT HEAD       1
     163       1      82       1       1.900000         CONSTANT HEAD       1
     164       1      82     180       1.900000         CONSTANT HEAD       1
     165       1      83       1       1.900000         CONSTANT HEAD       1
     166       1      83     180       1.900000         CONSTANT HEAD       1
     167       1      84       1       1.900000         CONSTANT HEAD       1
     168       1      84     180       1.900000         CONSTANT HEAD       1
     169       1      85       1       1.900000         CONSTANT HEAD       1
     170       1      85     180       1.900000         CONSTANT HEAD       1
     171       1      86       1       1.900000         CONSTANT HEAD       1
     172       1      86     180       1.900000         CONSTANT HEAD       1
     173       1      87       1       1.900000         CONSTANT HEAD       1
     174       1      87     180       1.900000         CONSTANT HEAD       1
     175       1      88       1       1.900000         CONSTANT HEAD       1
     176       1      88     180       1.900000         CONSTANT HEAD       1
     177       1      89       1       1.900000         CONSTANT HEAD       1
     178       1      89     180       1.900000         CONSTANT HEAD       1
     179       1      90       1       1.900000         CONSTANT HEAD       1
     180       1      90     180       1.900000         CONSTANT HEAD       1
     181       1      91       1       1.900000         CONSTANT HEAD       1
     182       1      91     180       1.900000         CONSTANT HEAD       1
     183       1      92       1       1.900000         CONSTANT HEAD       1
     184       1      92     180       1.900000         CONSTANT HEAD       1
     185       1      93       1       1.900000         CONSTANT HEAD       1
     186       1      93     180       1.900000         CONSTANT HEAD       1
     187       1      94       1       1.900000         CONSTANT HEAD       1
     188       1      94     180       1.900000         CONSTANT HEAD       1
     189       1      95       1       1.900000         CONSTANT HEAD       1
     190       1      95     180       1.900000         CONSTANT HEAD       1
     191       1      96       1       1.900000         CONSTANT HEAD       1
     192       1      96     180       1.900000         CONSTANT HEAD       1
     193       1      97       1       1.900000         CONSTANT HEAD       1
     194       1      97     180       1.900000         CONSTANT HEAD       1
     195       1      98       1       1.900000         CONSTANT HEAD       1
     196       1      98     180       1.900000         CONSTANT HEAD       1
     197       1      99       1       1.900000         CONSTANT HEAD       1
     198       1      99     180       1.900000         CONSTANT HEAD       1
     199       1     100       1       1.900000         CONSTANT HEAD       1
     200       1     100     180       1.900000         CONSTANT HEAD       1
     201       1     101       1       1.900000         CONSTANT HEAD       1
     202       1     101     180       1.900000         CONSTANT HEAD       1
     203       1     102       1       1.900000         CONSTANT HEAD       1
     204       1     102     180       1.900000         CONSTANT HEAD       1
     205       1     103       1       1.900000         CONSTANT HEAD       1
     206       1     103     180       1.900000         CONSTANT HEAD       1
     207       1     104       1       1.900000         CONSTANT HEAD       1
     208       1     104     180       1.900000         CONSTANT HEAD       1
     209       1     105       1       1.900000         CONSTANT HEAD       1
     210       1     105     180       1.900000         CONSTANT HEAD       1
     211       1     106       1       1.900000         CONSTANT HEAD       1
     212       1     106     180       1.900000         CONSTANT HEAD       1
     213       1     107       1       1.900000         CONSTANT HEAD       1
     214       1     107     180       1.900000         CONSTANT HEAD       1
     215       1     108       1       1.900000         CONSTANT HEAD       1
     216       1     108     180       1.900000         CONSTANT HEAD       1
     217       1     109       1       1.900000         CONSTANT HEAD       1
     218       1     109     180       1.900000         CONSTANT HEAD       1
     219       1     110       1       1.900000         CONSTANT HEAD       1
     220       1     110     180       1.900000         CONSTANT HEAD       1
     221       1     111       1       1.900000         CONSTANT HEAD       1
     222       1     111     180       1.900000         CONSTANT HEAD       1
     223       1     112       1       1.900000         CONSTANT HEAD       1
     224       1     112     180       1.900000         CONSTANT HEAD       1
     225       1     113       1       1.900000         CONSTANT HEAD       1
     226       1     113     180       1.900000         CONSTANT HEAD       1
     227       1     114       1       1.900000         CONSTANT HEAD       1
     228       1     114     180       1.900000         CONSTANT HEAD       1
     229       1     115       1       1.900000         CONSTANT HEAD       1
     230       1     115     180       1.900000         CONSTANT HEAD       1
     231       1     116       1       1.900000         CONSTANT HEAD       1
     232       1     116     180       1.900000         CONSTANT HEAD       1
     233       1     117       1       1.900000         CONSTANT HEAD       1
     234       1     117     180       1.900000         CONSTANT HEAD       1
     235       1     118       1       1.900000         CONSTANT HEAD       1
     236       1     118     180       1.900000         CONSTANT HEAD       1
     237       1     119       1       1.900000         CONSTANT HEAD       1
     238       1     119     180       1.900000         CONSTANT HEAD       1
     239       1     120       1       1.900000         CONSTANT HEAD       1
     240       1     120     180       1.900000         CONSTANT HEAD       1
     241       1     121       1       1.900000         CONSTANT HEAD       1
     242       1     121     180       1.900000         CONSTANT HEAD       1
     243       1     122       1       1.900000         CONSTANT HEAD       1
     244       1     122     180       1.900000         CONSTANT HEAD       1
     245       1     123       1       1.900000         CONSTANT HEAD       1
     246       1     123     180       1.900000         CONSTANT HEAD       1
     247       1     124       1       1.900000         CONSTANT HEAD       1
     248       1     124     180       1.900000         CONSTANT HEAD       1
     249       1     125       1       1.900000         CONSTANT HEAD       1
     250       1     125     180       1.900000         CONSTANT HEAD       1
     251       1     126       1       1.900000         CONSTANT HEAD       1
     252       1     126     180       1.900000         CONSTANT HEAD       1
     253       1     127       1       1.900000         CONSTANT HEAD       1
     254       1     127     180       1.900000         CONSTANT HEAD       1
     255       1     128       1       1.900000         CONSTANT HEAD       1
     256       1     128     180       1.900000         CONSTANT HEAD       1
     257       1     129       1       1.900000         CONSTANT HEAD       1
     258       1     129     180       1.900000         CONSTANT HEAD       1
     259       1     130       1       1.900000         CONSTANT HEAD       1
     260       1     130     180       1.900000         CONSTANT HEAD       1
     261       1     131       1       1.900000         CONSTANT HEAD       1
     262       1     131     180       1.900000         CONSTANT HEAD       1
     263       1     132       1       1.900000         CONSTANT HEAD       1
     264       1     132     180       1.900000         CONSTANT HEAD       1
     265       1     133       1       1.900000         CONSTANT HEAD       1
     266       1     133     180       1.900000         CONSTANT HEAD       1
     267       1     134       1       1.900000         CONSTANT HEAD       1
     268       1     134     180       1.900000         CONSTANT HEAD       1
     269       1     135       1       1.900000         CONSTANT HEAD       1
     270       1     135     180       1.900000         CONSTANT HEAD       1
     271       1     136       1       1.900000         CONSTANT HEAD       1
     272       1     136     180       1.900000         CONSTANT HEAD       1
     273       1     137       1       1.900000         CONSTANT HEAD       1
     274       1     137     180       1.900000         CONSTANT HEAD       1
     275       1     138       1       1.900000         CONSTANT HEAD       1
     276       1     138     180       1.900000         CONSTANT HEAD       1
     277       1     139       1       1.900000         CONSTANT HEAD       1
     278       1     139     180       1.900000         CONSTANT HEAD       1
     279       1     140       1       1.900000         CONSTANT HEAD       1
     280       1     140     180       1.900000         CONSTANT HEAD       1
     281       1     141       1       1.900000         CONSTANT HEAD       1
     282       1     141     180       1.900000         CONSTANT HEAD       1
     283       1     142       1       1.900000         CONSTANT HEAD       1
     284       1     142     180       1.900000         CONSTANT HEAD       1
     285       1     143       1       1.900000         CONSTANT HEAD       1
     286       1     143     180       1.900000         CONSTANT HEAD       1
     287       1     144       1       1.900000         CONSTANT HEAD       1
     288       1     144     180       1.900000         CONSTANT HEAD       1
     289       1     145       1       1.900000         CONSTANT HEAD       1
     290       1     145     180       1.900000         CONSTANT HEAD       1
     291       1     146       1       1.900000         CONSTANT HEAD       1
     292       1     146     180       1.900000         CONSTANT HEAD       1
     293       1     147       1       1.900000         CONSTANT HEAD       1
     294       1     147     180       1.900000         CONSTANT HEAD       1
     295       1     148       1       1.900000         CONSTANT HEAD       1
     296       1     148     180       1.900000         CONSTANT HEAD       1
     297       1     149       1       1.900000         CONSTANT HEAD       1
     298       1     149     180       1.900000         CONSTANT HEAD       1
     299       1     150       1       1.900000         CONSTANT HEAD       1
     300       1     150     180       1.900000         CONSTANT HEAD       1
     301       1     151       1       1.900000         CONSTANT HEAD       1
     302       1     151     180       1.900000         CONSTANT HEAD       1
     303       1     152       1       1.900000         CONSTANT HEAD       1
     304       1     152     180       1.900000         CONSTANT HEAD       1
     305       1     153       1       1.900000         CONSTANT HEAD       1
     306       1     153     180       1.900000         CONSTANT HEAD       1
     307       1     154       1       1.900000         CONSTANT HEAD       1
     308       1     154     180       1.900000         CONSTANT HEAD       1
     309       1     155       1       1.900000         CONSTANT HEAD       1
     310       1     155     180       1.900000         CONSTANT HEAD       1
     311       1     156       1       1.900000         CONSTANT HEAD       1
     312       1     156     180       1.900000         CONSTANT HEAD       1
     313       1     157       1       1.900000         CONSTANT HEAD       1
     314       1     157     180       1.900000         CONSTANT HEAD       1
     315       1     158       1       1.900000         CONSTANT HEAD       1
     316       1     158     180       1.900000         CONSTANT HEAD       1
     317       1     159       1       1.900000         CONSTANT HEAD       1
     318       1     159     180       1.900000         CONSTANT HEAD       1
     319       1     160       1       1.900000         CONSTANT HEAD       1
     320       1     160     180       1.900000         CONSTANT HEAD       1
     321       1     161       1       1.900000         CONSTANT HEAD       1
     322       1     161     180       1.900000         CONSTANT HEAD       1
     323       1     162       1       1.900000         CONSTANT HEAD       1
     324       1     162     180       1.900000         CONSTANT HEAD       1
     325       1     163       1       1.900000         CONSTANT HEAD       1
     326       1     163     180       1.900000         CONSTANT HEAD       1
     327       1     164       1       1.900000         CONSTANT HEAD       1
     328       1     164     180       1.900000         CONSTANT HEAD       1
     329       1     165       1       1.900000         CONSTANT HEAD       1
     330       1     165     180       1.900000         CONSTANT HEAD       1
     331       1     166       1       1.900000         CONSTANT HEAD       1
     332       1     166     180       1.900000         CONSTANT HEAD       1
     333       1     167       1       1.900000         CONSTANT HEAD       1
     334       1     167     180       1.900000         CONSTANT HEAD       1
     335       1     168       1       1.900000         CONSTANT HEAD       1
     336       1     168     180       1.900000         CONSTANT HEAD       1
     337       1     169       1       1.900000         CONSTANT HEAD       1
     338       1     169     180       1.900000         CONSTANT HEAD       1
     339       1     170       1       1.900000         CONSTANT HEAD       1
     340       1     170     180       1.900000         CONSTANT HEAD       1
     341       1     171       1       1.900000         CONSTANT HEAD       1
     342       1     171     180       1.900000         CONSTANT HEAD       1
     343       1     172       1       1.900000         CONSTANT HEAD       1
     344       1     172     180       1.900000         CONSTANT HEAD       1
     345       1     173       1       1.900000         CONSTANT HEAD       1
     346       1     173     180       1.900000         CONSTANT HEAD       1
     347       1     174       1       1.900000         CONSTANT HEAD       1
     348       1     174     180       1.900000         CONSTANT HEAD       1
     349       1     175       1       1.900000         CONSTANT HEAD       1
     350       1     175     180       1.900000         CONSTANT HEAD       1
     351       1     176       1       1.900000         CONSTANT HEAD       1
     352       1     176     180       1.900000         CONSTANT HEAD       1
     353       1     177       1       1.900000         CONSTANT HEAD       1
     354       1     177     180       1.900000         CONSTANT HEAD       1
     355       1     178       1       1.900000         CONSTANT HEAD       1
     356       1     178     180       1.900000         CONSTANT HEAD       1
     357       1     179       1       1.900000         CONSTANT HEAD       1
     358       1     179     180       1.900000         CONSTANT HEAD       1
     359       1     180       1       1.900000         CONSTANT HEAD       1
     360       1     180     180       1.900000         CONSTANT HEAD       1
     361       1      91      91      0.1500000         WELL                1


                                          ================================================
                                                         TIME STEP NO.  001
                                          ================================================

 FROM TIME =   210.00     TO    240.00    


                    "THKSAT          " FLOW TERMS FOR TIME STEP  1, STRESS PERIOD  8 READ UNFORMATTED ON UNIT 10
                    --------------------------------------------------------------------------------------------

                    "QXX             " FLOW TERMS FOR TIME STEP  1, STRESS PERIOD  8 READ UNFORMATTED ON UNIT 10
                    --------------------------------------------------------------------------------------------

                    "QYY             " FLOW TERMS FOR TIME STEP  1, STRESS PERIOD  8 READ UNFORMATTED ON UNIT 10
                    --------------------------------------------------------------------------------------------

                    "STO             " FLOW TERMS FOR TIME STEP  1, STRESS PERIOD  8 READ UNFORMATTED ON UNIT 10
                    --------------------------------------------------------------------------------------------

 MAXIMUM STEPSIZE DURING WHICH ANY PARTICLE CANNOT MOVE MORE THAN ONE CELL
 =  1.144    (WHEN MIN. R.F.=1)  AT K=   1, I=  91, J=  92

 MAXIMUM STEPSIZE WHICH MEETS STABILITY CRITERION OF THE ADVECTION TERM
 (FOR PURE FINITE-DIFFERENCE OPTION, MIXELM=0) 
 = 0.4160    (WHEN MIN. R.F.=1)  AT K=   1, I=  91, J=  91

                    "CNH             " FLOW TERMS FOR TIME STEP  1, STRESS PERIOD  8 READ UNFORMATTED ON UNIT 10
                    --------------------------------------------------------------------------------------------

                    "WEL             " FLOW TERMS FOR TIME STEP  1, STRESS PERIOD  8 READ UNFORMATTED ON UNIT 10
                    --------------------------------------------------------------------------------------------


 TOTAL NUMBER OF POINT SOURCES/SINKS PRESENT IN THE FLOW MODEL =   361

 MAXIMUM STEPSIZE WHICH MEETS STABILITY CRITERION OF THE SINK & SOURCE TERM
 = 0.4803E+05(WHEN MIN. R.F.=1)  AT K=   1, I=   1, J= 180

 MAXIMUM STEPSIZE WHICH MEETS STABILITY CRITERION OF THE DISPERSION TERM
 = 0.2080    (WHEN MIN. R.F.=1)  AT K=   1, I=  91, J=  91


     1 CALLS TO GCG PACKAGE FOR TRANSPORT TIME STEP     1 IN FLOW TIME STEP     1 STRESS PERIOD     8
      7 TOTAL ITERATIONS
  MAXIMUM CONCENTRATION CHANGES FOR EACH ITERATION:
  MAX. CHANGE LAYER,ROW,COL MAX. CHANGE LAYER,ROW,COL MAX. CHANGE LAYER,ROW,COL MAX. CHANGE LAYER,ROW,COL MAX. CHANGE LAYER,ROW,COL
 ------------------------------------------------------------------------------------------------------------------------------------
   0.1363     (  1, 85, 97)  0.8809E-02 (  1, 90, 93)  0.3134E-02 (  1, 91, 91)  0.8765E-03 (  1, 91, 91)  0.5122E-03 (  1, 91, 91)
   0.1507E-04 (  1, 92, 91)  0.3427E-05 (  1, 91, 92)



 >>>>>>>>>>>>>>>>>>>>>>>>>>>>>>>>>>>>>>>>>>>>>>>>>>>>>>>FOR COMPONENT NO. 01<<<<<<<<<<<<<<<<<<<<<<<<<<<<<<<<<<<<<<<<<<<<<<<<<<<<<<<


                                            -------------------------------------------
                                                      TRANSPORT STEP NO.    1
                                            -------------------------------------------

 TOTAL ELAPSED TIME SINCE BEGINNING OF SIMULATION =   240.0000    D   
 .....................................................................

                     CUMULATIVE MASS BUDGETS AT END OF TRANSPORT STEP    1, TIME STEP    1, STRESS PERIOD    8
                     -----------------------------------------------------------------------------------------

                                                             IN                           OUT
                                                      ----------------             ----------------
                               CONSTANT CONCENTRATION:    0.000000                    0.000000    
                                        CONSTANT HEAD:    2169864.                   -2206886.    
                                                WELLS:    46612.47                   -38199.63    
                               MASS STOR (FLOW MODEL):    2015607.                   -2391519.    
                                MASS STORAGE (SOLUTE):    542139.6                   -137397.2    
                            ---------------------------------------------------------------------------
                                              [TOTAL]:    4774223.     KG            -4774002.     KG  

                                                          NET (IN - OUT):    221.0000    
                                                   DISCREPANCY (PERCENT):   0.4629133E-02


                                   ++++++++++++++++++++++++++++++++++++++++++++++++++++++++++++++
                                                       STRESS PERIOD NO.  009
                                   ++++++++++++++++++++++++++++++++++++++++++++++++++++++++++++++


 LENGTH OF CURRENT STRESS PERIOD =   30.00000    
 NUMBER OF TIME STEPS FOR CURRENT STRESS PERIOD =    1
 TIME STEP MULTIPLIER USED IN FLOW SOLUTION =   1.000000    

 ***Type of Transport Simulation is TRANSIENT

 USER-SPECIFIED TRANSPORT STEPSIZE =   30.00000    D   
 MAXIMUM NUMBER OF TRANSPORT STEPS ALLOWED  IN ONE FLOW TIME STEP =     50000
 MULTIPLIER FOR SUCCESSIVE TRANSPORT STEPS  [USED IN IMPLICIT SCHEMES] =     1.000
 MAXIMUM TRANSPORT STEP SIZE  [USED IN IMPLICIT SCHEMES] =   0.000000    D   

       NO    LAYER   ROW   COLUMN   CONCENTRATION       TYPE            COMPONENT
       1       1       1       1       1.900000         CONSTANT HEAD       1
       2       1       1     180       1.900000         CONSTANT HEAD       1
       3       1       2       1       1.900000         CONSTANT HEAD       1
       4       1       2     180       1.900000         CONSTANT HEAD       1
       5       1       3       1       1.900000         CONSTANT HEAD       1
       6       1       3     180       1.900000         CONSTANT HEAD       1
       7       1       4       1       1.900000         CONSTANT HEAD       1
       8       1       4     180       1.900000         CONSTANT HEAD       1
       9       1       5       1       1.900000         CONSTANT HEAD       1
      10       1       5     180       1.900000         CONSTANT HEAD       1
      11       1       6       1       1.900000         CONSTANT HEAD       1
      12       1       6     180       1.900000         CONSTANT HEAD       1
      13       1       7       1       1.900000         CONSTANT HEAD       1
      14       1       7     180       1.900000         CONSTANT HEAD       1
      15       1       8       1       1.900000         CONSTANT HEAD       1
      16       1       8     180       1.900000         CONSTANT HEAD       1
      17       1       9       1       1.900000         CONSTANT HEAD       1
      18       1       9     180       1.900000         CONSTANT HEAD       1
      19       1      10       1       1.900000         CONSTANT HEAD       1
      20       1      10     180       1.900000         CONSTANT HEAD       1
      21       1      11       1       1.900000         CONSTANT HEAD       1
      22       1      11     180       1.900000         CONSTANT HEAD       1
      23       1      12       1       1.900000         CONSTANT HEAD       1
      24       1      12     180       1.900000         CONSTANT HEAD       1
      25       1      13       1       1.900000         CONSTANT HEAD       1
      26       1      13     180       1.900000         CONSTANT HEAD       1
      27       1      14       1       1.900000         CONSTANT HEAD       1
      28       1      14     180       1.900000         CONSTANT HEAD       1
      29       1      15       1       1.900000         CONSTANT HEAD       1
      30       1      15     180       1.900000         CONSTANT HEAD       1
      31       1      16       1       1.900000         CONSTANT HEAD       1
      32       1      16     180       1.900000         CONSTANT HEAD       1
      33       1      17       1       1.900000         CONSTANT HEAD       1
      34       1      17     180       1.900000         CONSTANT HEAD       1
      35       1      18       1       1.900000         CONSTANT HEAD       1
      36       1      18     180       1.900000         CONSTANT HEAD       1
      37       1      19       1       1.900000         CONSTANT HEAD       1
      38       1      19     180       1.900000         CONSTANT HEAD       1
      39       1      20       1       1.900000         CONSTANT HEAD       1
      40       1      20     180       1.900000         CONSTANT HEAD       1
      41       1      21       1       1.900000         CONSTANT HEAD       1
      42       1      21     180       1.900000         CONSTANT HEAD       1
      43       1      22       1       1.900000         CONSTANT HEAD       1
      44       1      22     180       1.900000         CONSTANT HEAD       1
      45       1      23       1       1.900000         CONSTANT HEAD       1
      46       1      23     180       1.900000         CONSTANT HEAD       1
      47       1      24       1       1.900000         CONSTANT HEAD       1
      48       1      24     180       1.900000         CONSTANT HEAD       1
      49       1      25       1       1.900000         CONSTANT HEAD       1
      50       1      25     180       1.900000         CONSTANT HEAD       1
      51       1      26       1       1.900000         CONSTANT HEAD       1
      52       1      26     180       1.900000         CONSTANT HEAD       1
      53       1      27       1       1.900000         CONSTANT HEAD       1
      54       1      27     180       1.900000         CONSTANT HEAD       1
      55       1      28       1       1.900000         CONSTANT HEAD       1
      56       1      28     180       1.900000         CONSTANT HEAD       1
      57       1      29       1       1.900000         CONSTANT HEAD       1
      58       1      29     180       1.900000         CONSTANT HEAD       1
      59       1      30       1       1.900000         CONSTANT HEAD       1
      60       1      30     180       1.900000         CONSTANT HEAD       1
      61       1      31       1       1.900000         CONSTANT HEAD       1
      62       1      31     180       1.900000         CONSTANT HEAD       1
      63       1      32       1       1.900000         CONSTANT HEAD       1
      64       1      32     180       1.900000         CONSTANT HEAD       1
      65       1      33       1       1.900000         CONSTANT HEAD       1
      66       1      33     180       1.900000         CONSTANT HEAD       1
      67       1      34       1       1.900000         CONSTANT HEAD       1
      68       1      34     180       1.900000         CONSTANT HEAD       1
      69       1      35       1       1.900000         CONSTANT HEAD       1
      70       1      35     180       1.900000         CONSTANT HEAD       1
      71       1      36       1       1.900000         CONSTANT HEAD       1
      72       1      36     180       1.900000         CONSTANT HEAD       1
      73       1      37       1       1.900000         CONSTANT HEAD       1
      74       1      37     180       1.900000         CONSTANT HEAD       1
      75       1      38       1       1.900000         CONSTANT HEAD       1
      76       1      38     180       1.900000         CONSTANT HEAD       1
      77       1      39       1       1.900000         CONSTANT HEAD       1
      78       1      39     180       1.900000         CONSTANT HEAD       1
      79       1      40       1       1.900000         CONSTANT HEAD       1
      80       1      40     180       1.900000         CONSTANT HEAD       1
      81       1      41       1       1.900000         CONSTANT HEAD       1
      82       1      41     180       1.900000         CONSTANT HEAD       1
      83       1      42       1       1.900000         CONSTANT HEAD       1
      84       1      42     180       1.900000         CONSTANT HEAD       1
      85       1      43       1       1.900000         CONSTANT HEAD       1
      86       1      43     180       1.900000         CONSTANT HEAD       1
      87       1      44       1       1.900000         CONSTANT HEAD       1
      88       1      44     180       1.900000         CONSTANT HEAD       1
      89       1      45       1       1.900000         CONSTANT HEAD       1
      90       1      45     180       1.900000         CONSTANT HEAD       1
      91       1      46       1       1.900000         CONSTANT HEAD       1
      92       1      46     180       1.900000         CONSTANT HEAD       1
      93       1      47       1       1.900000         CONSTANT HEAD       1
      94       1      47     180       1.900000         CONSTANT HEAD       1
      95       1      48       1       1.900000         CONSTANT HEAD       1
      96       1      48     180       1.900000         CONSTANT HEAD       1
      97       1      49       1       1.900000         CONSTANT HEAD       1
      98       1      49     180       1.900000         CONSTANT HEAD       1
      99       1      50       1       1.900000         CONSTANT HEAD       1
     100       1      50     180       1.900000         CONSTANT HEAD       1
     101       1      51       1       1.900000         CONSTANT HEAD       1
     102       1      51     180       1.900000         CONSTANT HEAD       1
     103       1      52       1       1.900000         CONSTANT HEAD       1
     104       1      52     180       1.900000         CONSTANT HEAD       1
     105       1      53       1       1.900000         CONSTANT HEAD       1
     106       1      53     180       1.900000         CONSTANT HEAD       1
     107       1      54       1       1.900000         CONSTANT HEAD       1
     108       1      54     180       1.900000         CONSTANT HEAD       1
     109       1      55       1       1.900000         CONSTANT HEAD       1
     110       1      55     180       1.900000         CONSTANT HEAD       1
     111       1      56       1       1.900000         CONSTANT HEAD       1
     112       1      56     180       1.900000         CONSTANT HEAD       1
     113       1      57       1       1.900000         CONSTANT HEAD       1
     114       1      57     180       1.900000         CONSTANT HEAD       1
     115       1      58       1       1.900000         CONSTANT HEAD       1
     116       1      58     180       1.900000         CONSTANT HEAD       1
     117       1      59       1       1.900000         CONSTANT HEAD       1
     118       1      59     180       1.900000         CONSTANT HEAD       1
     119       1      60       1       1.900000         CONSTANT HEAD       1
     120       1      60     180       1.900000         CONSTANT HEAD       1
     121       1      61       1       1.900000         CONSTANT HEAD       1
     122       1      61     180       1.900000         CONSTANT HEAD       1
     123       1      62       1       1.900000         CONSTANT HEAD       1
     124       1      62     180       1.900000         CONSTANT HEAD       1
     125       1      63       1       1.900000         CONSTANT HEAD       1
     126       1      63     180       1.900000         CONSTANT HEAD       1
     127       1      64       1       1.900000         CONSTANT HEAD       1
     128       1      64     180       1.900000         CONSTANT HEAD       1
     129       1      65       1       1.900000         CONSTANT HEAD       1
     130       1      65     180       1.900000         CONSTANT HEAD       1
     131       1      66       1       1.900000         CONSTANT HEAD       1
     132       1      66     180       1.900000         CONSTANT HEAD       1
     133       1      67       1       1.900000         CONSTANT HEAD       1
     134       1      67     180       1.900000         CONSTANT HEAD       1
     135       1      68       1       1.900000         CONSTANT HEAD       1
     136       1      68     180       1.900000         CONSTANT HEAD       1
     137       1      69       1       1.900000         CONSTANT HEAD       1
     138       1      69     180       1.900000         CONSTANT HEAD       1
     139       1      70       1       1.900000         CONSTANT HEAD       1
     140       1      70     180       1.900000         CONSTANT HEAD       1
     141       1      71       1       1.900000         CONSTANT HEAD       1
     142       1      71     180       1.900000         CONSTANT HEAD       1
     143       1      72       1       1.900000         CONSTANT HEAD       1
     144       1      72     180       1.900000         CONSTANT HEAD       1
     145       1      73       1       1.900000         CONSTANT HEAD       1
     146       1      73     180       1.900000         CONSTANT HEAD       1
     147       1      74       1       1.900000         CONSTANT HEAD       1
     148       1      74     180       1.900000         CONSTANT HEAD       1
     149       1      75       1       1.900000         CONSTANT HEAD       1
     150       1      75     180       1.900000         CONSTANT HEAD       1
     151       1      76       1       1.900000         CONSTANT HEAD       1
     152       1      76     180       1.900000         CONSTANT HEAD       1
     153       1      77       1       1.900000         CONSTANT HEAD       1
     154       1      77     180       1.900000         CONSTANT HEAD       1
     155       1      78       1       1.900000         CONSTANT HEAD       1
     156       1      78     180       1.900000         CONSTANT HEAD       1
     157       1      79       1       1.900000         CONSTANT HEAD       1
     158       1      79     180       1.900000         CONSTANT HEAD       1
     159       1      80       1       1.900000         CONSTANT HEAD       1
     160       1      80     180       1.900000         CONSTANT HEAD       1
     161       1      81       1       1.900000         CONSTANT HEAD       1
     162       1      81     180       1.900000         CONSTANT HEAD       1
     163       1      82       1       1.900000         CONSTANT HEAD       1
     164       1      82     180       1.900000         CONSTANT HEAD       1
     165       1      83       1       1.900000         CONSTANT HEAD       1
     166       1      83     180       1.900000         CONSTANT HEAD       1
     167       1      84       1       1.900000         CONSTANT HEAD       1
     168       1      84     180       1.900000         CONSTANT HEAD       1
     169       1      85       1       1.900000         CONSTANT HEAD       1
     170       1      85     180       1.900000         CONSTANT HEAD       1
     171       1      86       1       1.900000         CONSTANT HEAD       1
     172       1      86     180       1.900000         CONSTANT HEAD       1
     173       1      87       1       1.900000         CONSTANT HEAD       1
     174       1      87     180       1.900000         CONSTANT HEAD       1
     175       1      88       1       1.900000         CONSTANT HEAD       1
     176       1      88     180       1.900000         CONSTANT HEAD       1
     177       1      89       1       1.900000         CONSTANT HEAD       1
     178       1      89     180       1.900000         CONSTANT HEAD       1
     179       1      90       1       1.900000         CONSTANT HEAD       1
     180       1      90     180       1.900000         CONSTANT HEAD       1
     181       1      91       1       1.900000         CONSTANT HEAD       1
     182       1      91     180       1.900000         CONSTANT HEAD       1
     183       1      92       1       1.900000         CONSTANT HEAD       1
     184       1      92     180       1.900000         CONSTANT HEAD       1
     185       1      93       1       1.900000         CONSTANT HEAD       1
     186       1      93     180       1.900000         CONSTANT HEAD       1
     187       1      94       1       1.900000         CONSTANT HEAD       1
     188       1      94     180       1.900000         CONSTANT HEAD       1
     189       1      95       1       1.900000         CONSTANT HEAD       1
     190       1      95     180       1.900000         CONSTANT HEAD       1
     191       1      96       1       1.900000         CONSTANT HEAD       1
     192       1      96     180       1.900000         CONSTANT HEAD       1
     193       1      97       1       1.900000         CONSTANT HEAD       1
     194       1      97     180       1.900000         CONSTANT HEAD       1
     195       1      98       1       1.900000         CONSTANT HEAD       1
     196       1      98     180       1.900000         CONSTANT HEAD       1
     197       1      99       1       1.900000         CONSTANT HEAD       1
     198       1      99     180       1.900000         CONSTANT HEAD       1
     199       1     100       1       1.900000         CONSTANT HEAD       1
     200       1     100     180       1.900000         CONSTANT HEAD       1
     201       1     101       1       1.900000         CONSTANT HEAD       1
     202       1     101     180       1.900000         CONSTANT HEAD       1
     203       1     102       1       1.900000         CONSTANT HEAD       1
     204       1     102     180       1.900000         CONSTANT HEAD       1
     205       1     103       1       1.900000         CONSTANT HEAD       1
     206       1     103     180       1.900000         CONSTANT HEAD       1
     207       1     104       1       1.900000         CONSTANT HEAD       1
     208       1     104     180       1.900000         CONSTANT HEAD       1
     209       1     105       1       1.900000         CONSTANT HEAD       1
     210       1     105     180       1.900000         CONSTANT HEAD       1
     211       1     106       1       1.900000         CONSTANT HEAD       1
     212       1     106     180       1.900000         CONSTANT HEAD       1
     213       1     107       1       1.900000         CONSTANT HEAD       1
     214       1     107     180       1.900000         CONSTANT HEAD       1
     215       1     108       1       1.900000         CONSTANT HEAD       1
     216       1     108     180       1.900000         CONSTANT HEAD       1
     217       1     109       1       1.900000         CONSTANT HEAD       1
     218       1     109     180       1.900000         CONSTANT HEAD       1
     219       1     110       1       1.900000         CONSTANT HEAD       1
     220       1     110     180       1.900000         CONSTANT HEAD       1
     221       1     111       1       1.900000         CONSTANT HEAD       1
     222       1     111     180       1.900000         CONSTANT HEAD       1
     223       1     112       1       1.900000         CONSTANT HEAD       1
     224       1     112     180       1.900000         CONSTANT HEAD       1
     225       1     113       1       1.900000         CONSTANT HEAD       1
     226       1     113     180       1.900000         CONSTANT HEAD       1
     227       1     114       1       1.900000         CONSTANT HEAD       1
     228       1     114     180       1.900000         CONSTANT HEAD       1
     229       1     115       1       1.900000         CONSTANT HEAD       1
     230       1     115     180       1.900000         CONSTANT HEAD       1
     231       1     116       1       1.900000         CONSTANT HEAD       1
     232       1     116     180       1.900000         CONSTANT HEAD       1
     233       1     117       1       1.900000         CONSTANT HEAD       1
     234       1     117     180       1.900000         CONSTANT HEAD       1
     235       1     118       1       1.900000         CONSTANT HEAD       1
     236       1     118     180       1.900000         CONSTANT HEAD       1
     237       1     119       1       1.900000         CONSTANT HEAD       1
     238       1     119     180       1.900000         CONSTANT HEAD       1
     239       1     120       1       1.900000         CONSTANT HEAD       1
     240       1     120     180       1.900000         CONSTANT HEAD       1
     241       1     121       1       1.900000         CONSTANT HEAD       1
     242       1     121     180       1.900000         CONSTANT HEAD       1
     243       1     122       1       1.900000         CONSTANT HEAD       1
     244       1     122     180       1.900000         CONSTANT HEAD       1
     245       1     123       1       1.900000         CONSTANT HEAD       1
     246       1     123     180       1.900000         CONSTANT HEAD       1
     247       1     124       1       1.900000         CONSTANT HEAD       1
     248       1     124     180       1.900000         CONSTANT HEAD       1
     249       1     125       1       1.900000         CONSTANT HEAD       1
     250       1     125     180       1.900000         CONSTANT HEAD       1
     251       1     126       1       1.900000         CONSTANT HEAD       1
     252       1     126     180       1.900000         CONSTANT HEAD       1
     253       1     127       1       1.900000         CONSTANT HEAD       1
     254       1     127     180       1.900000         CONSTANT HEAD       1
     255       1     128       1       1.900000         CONSTANT HEAD       1
     256       1     128     180       1.900000         CONSTANT HEAD       1
     257       1     129       1       1.900000         CONSTANT HEAD       1
     258       1     129     180       1.900000         CONSTANT HEAD       1
     259       1     130       1       1.900000         CONSTANT HEAD       1
     260       1     130     180       1.900000         CONSTANT HEAD       1
     261       1     131       1       1.900000         CONSTANT HEAD       1
     262       1     131     180       1.900000         CONSTANT HEAD       1
     263       1     132       1       1.900000         CONSTANT HEAD       1
     264       1     132     180       1.900000         CONSTANT HEAD       1
     265       1     133       1       1.900000         CONSTANT HEAD       1
     266       1     133     180       1.900000         CONSTANT HEAD       1
     267       1     134       1       1.900000         CONSTANT HEAD       1
     268       1     134     180       1.900000         CONSTANT HEAD       1
     269       1     135       1       1.900000         CONSTANT HEAD       1
     270       1     135     180       1.900000         CONSTANT HEAD       1
     271       1     136       1       1.900000         CONSTANT HEAD       1
     272       1     136     180       1.900000         CONSTANT HEAD       1
     273       1     137       1       1.900000         CONSTANT HEAD       1
     274       1     137     180       1.900000         CONSTANT HEAD       1
     275       1     138       1       1.900000         CONSTANT HEAD       1
     276       1     138     180       1.900000         CONSTANT HEAD       1
     277       1     139       1       1.900000         CONSTANT HEAD       1
     278       1     139     180       1.900000         CONSTANT HEAD       1
     279       1     140       1       1.900000         CONSTANT HEAD       1
     280       1     140     180       1.900000         CONSTANT HEAD       1
     281       1     141       1       1.900000         CONSTANT HEAD       1
     282       1     141     180       1.900000         CONSTANT HEAD       1
     283       1     142       1       1.900000         CONSTANT HEAD       1
     284       1     142     180       1.900000         CONSTANT HEAD       1
     285       1     143       1       1.900000         CONSTANT HEAD       1
     286       1     143     180       1.900000         CONSTANT HEAD       1
     287       1     144       1       1.900000         CONSTANT HEAD       1
     288       1     144     180       1.900000         CONSTANT HEAD       1
     289       1     145       1       1.900000         CONSTANT HEAD       1
     290       1     145     180       1.900000         CONSTANT HEAD       1
     291       1     146       1       1.900000         CONSTANT HEAD       1
     292       1     146     180       1.900000         CONSTANT HEAD       1
     293       1     147       1       1.900000         CONSTANT HEAD       1
     294       1     147     180       1.900000         CONSTANT HEAD       1
     295       1     148       1       1.900000         CONSTANT HEAD       1
     296       1     148     180       1.900000         CONSTANT HEAD       1
     297       1     149       1       1.900000         CONSTANT HEAD       1
     298       1     149     180       1.900000         CONSTANT HEAD       1
     299       1     150       1       1.900000         CONSTANT HEAD       1
     300       1     150     180       1.900000         CONSTANT HEAD       1
     301       1     151       1       1.900000         CONSTANT HEAD       1
     302       1     151     180       1.900000         CONSTANT HEAD       1
     303       1     152       1       1.900000         CONSTANT HEAD       1
     304       1     152     180       1.900000         CONSTANT HEAD       1
     305       1     153       1       1.900000         CONSTANT HEAD       1
     306       1     153     180       1.900000         CONSTANT HEAD       1
     307       1     154       1       1.900000         CONSTANT HEAD       1
     308       1     154     180       1.900000         CONSTANT HEAD       1
     309       1     155       1       1.900000         CONSTANT HEAD       1
     310       1     155     180       1.900000         CONSTANT HEAD       1
     311       1     156       1       1.900000         CONSTANT HEAD       1
     312       1     156     180       1.900000         CONSTANT HEAD       1
     313       1     157       1       1.900000         CONSTANT HEAD       1
     314       1     157     180       1.900000         CONSTANT HEAD       1
     315       1     158       1       1.900000         CONSTANT HEAD       1
     316       1     158     180       1.900000         CONSTANT HEAD       1
     317       1     159       1       1.900000         CONSTANT HEAD       1
     318       1     159     180       1.900000         CONSTANT HEAD       1
     319       1     160       1       1.900000         CONSTANT HEAD       1
     320       1     160     180       1.900000         CONSTANT HEAD       1
     321       1     161       1       1.900000         CONSTANT HEAD       1
     322       1     161     180       1.900000         CONSTANT HEAD       1
     323       1     162       1       1.900000         CONSTANT HEAD       1
     324       1     162     180       1.900000         CONSTANT HEAD       1
     325       1     163       1       1.900000         CONSTANT HEAD       1
     326       1     163     180       1.900000         CONSTANT HEAD       1
     327       1     164       1       1.900000         CONSTANT HEAD       1
     328       1     164     180       1.900000         CONSTANT HEAD       1
     329       1     165       1       1.900000         CONSTANT HEAD       1
     330       1     165     180       1.900000         CONSTANT HEAD       1
     331       1     166       1       1.900000         CONSTANT HEAD       1
     332       1     166     180       1.900000         CONSTANT HEAD       1
     333       1     167       1       1.900000         CONSTANT HEAD       1
     334       1     167     180       1.900000         CONSTANT HEAD       1
     335       1     168       1       1.900000         CONSTANT HEAD       1
     336       1     168     180       1.900000         CONSTANT HEAD       1
     337       1     169       1       1.900000         CONSTANT HEAD       1
     338       1     169     180       1.900000         CONSTANT HEAD       1
     339       1     170       1       1.900000         CONSTANT HEAD       1
     340       1     170     180       1.900000         CONSTANT HEAD       1
     341       1     171       1       1.900000         CONSTANT HEAD       1
     342       1     171     180       1.900000         CONSTANT HEAD       1
     343       1     172       1       1.900000         CONSTANT HEAD       1
     344       1     172     180       1.900000         CONSTANT HEAD       1
     345       1     173       1       1.900000         CONSTANT HEAD       1
     346       1     173     180       1.900000         CONSTANT HEAD       1
     347       1     174       1       1.900000         CONSTANT HEAD       1
     348       1     174     180       1.900000         CONSTANT HEAD       1
     349       1     175       1       1.900000         CONSTANT HEAD       1
     350       1     175     180       1.900000         CONSTANT HEAD       1
     351       1     176       1       1.900000         CONSTANT HEAD       1
     352       1     176     180       1.900000         CONSTANT HEAD       1
     353       1     177       1       1.900000         CONSTANT HEAD       1
     354       1     177     180       1.900000         CONSTANT HEAD       1
     355       1     178       1       1.900000         CONSTANT HEAD       1
     356       1     178     180       1.900000         CONSTANT HEAD       1
     357       1     179       1       1.900000         CONSTANT HEAD       1
     358       1     179     180       1.900000         CONSTANT HEAD       1
     359       1     180       1       1.900000         CONSTANT HEAD       1
     360       1     180     180       1.900000         CONSTANT HEAD       1
     361       1      91      91      0.1500000         WELL                1


                                          ================================================
                                                         TIME STEP NO.  001
                                          ================================================

 FROM TIME =   240.00     TO    270.00    


                    "THKSAT          " FLOW TERMS FOR TIME STEP  1, STRESS PERIOD  9 READ UNFORMATTED ON UNIT 10
                    --------------------------------------------------------------------------------------------

                    "QXX             " FLOW TERMS FOR TIME STEP  1, STRESS PERIOD  9 READ UNFORMATTED ON UNIT 10
                    --------------------------------------------------------------------------------------------

                    "QYY             " FLOW TERMS FOR TIME STEP  1, STRESS PERIOD  9 READ UNFORMATTED ON UNIT 10
                    --------------------------------------------------------------------------------------------

                    "STO             " FLOW TERMS FOR TIME STEP  1, STRESS PERIOD  9 READ UNFORMATTED ON UNIT 10
                    --------------------------------------------------------------------------------------------

 MAXIMUM STEPSIZE DURING WHICH ANY PARTICLE CANNOT MOVE MORE THAN ONE CELL
 =  1.572    (WHEN MIN. R.F.=1)  AT K=   1, I=  91, J=  90

 MAXIMUM STEPSIZE WHICH MEETS STABILITY CRITERION OF THE ADVECTION TERM
 (FOR PURE FINITE-DIFFERENCE OPTION, MIXELM=0) 
 = 0.5721    (WHEN MIN. R.F.=1)  AT K=   1, I=  91, J=  91

                    "CNH             " FLOW TERMS FOR TIME STEP  1, STRESS PERIOD  9 READ UNFORMATTED ON UNIT 10
                    --------------------------------------------------------------------------------------------

                    "WEL             " FLOW TERMS FOR TIME STEP  1, STRESS PERIOD  9 READ UNFORMATTED ON UNIT 10
                    --------------------------------------------------------------------------------------------


 TOTAL NUMBER OF POINT SOURCES/SINKS PRESENT IN THE FLOW MODEL =   361

 MAXIMUM STEPSIZE WHICH MEETS STABILITY CRITERION OF THE SINK & SOURCE TERM
 = 0.2863    (WHEN MIN. R.F.=1)  AT K=   1, I=  91, J=  91

 MAXIMUM STEPSIZE WHICH MEETS STABILITY CRITERION OF THE DISPERSION TERM
 = 0.2866    (WHEN MIN. R.F.=1)  AT K=   1, I=  91, J=  91


     1 CALLS TO GCG PACKAGE FOR TRANSPORT TIME STEP     1 IN FLOW TIME STEP     1 STRESS PERIOD     9
     10 TOTAL ITERATIONS
  MAXIMUM CONCENTRATION CHANGES FOR EACH ITERATION:
  MAX. CHANGE LAYER,ROW,COL MAX. CHANGE LAYER,ROW,COL MAX. CHANGE LAYER,ROW,COL MAX. CHANGE LAYER,ROW,COL MAX. CHANGE LAYER,ROW,COL
 ------------------------------------------------------------------------------------------------------------------------------------
   0.1286     (  1, 91, 91)  0.6768E-01 (  1, 94, 90)  0.2095E-01 (  1, 95, 88)  0.6549E-02 (  1, 96, 89)  0.1484E-02 (  1, 98, 88)
   0.3528E-03 (  1, 98, 86)  0.5510E-04 (  1, 99, 85)  0.4202E-04 (  1,100, 85)  0.1007E-04 (  1,101, 83)  0.1997E-05 (  1,100, 84)



 >>>>>>>>>>>>>>>>>>>>>>>>>>>>>>>>>>>>>>>>>>>>>>>>>>>>>>>FOR COMPONENT NO. 01<<<<<<<<<<<<<<<<<<<<<<<<<<<<<<<<<<<<<<<<<<<<<<<<<<<<<<<


                                            -------------------------------------------
                                                      TRANSPORT STEP NO.    1
                                            -------------------------------------------

 TOTAL ELAPSED TIME SINCE BEGINNING OF SIMULATION =   270.0000    D   
 .....................................................................

                     CUMULATIVE MASS BUDGETS AT END OF TRANSPORT STEP    1, TIME STEP    1, STRESS PERIOD    9
                     -----------------------------------------------------------------------------------------

                                                             IN                           OUT
                                                      ----------------             ----------------
                               CONSTANT CONCENTRATION:    0.000000                    0.000000    
                                        CONSTANT HEAD:    2341283.                   -2390021.    
                                                WELLS:    52743.33                   -38199.63    
                               MASS STOR (FLOW MODEL):    2111714.                   -2551293.    
                                MASS STORAGE (SOLUTE):    611509.7                   -137470.5    
                            ---------------------------------------------------------------------------
                                              [TOTAL]:    5117250.     KG            -5116984.     KG  

                                                          NET (IN - OUT):    265.5000    
                                                   DISCREPANCY (PERCENT):   0.5188468E-02


                                   ++++++++++++++++++++++++++++++++++++++++++++++++++++++++++++++
                                                       STRESS PERIOD NO.  010
                                   ++++++++++++++++++++++++++++++++++++++++++++++++++++++++++++++


 LENGTH OF CURRENT STRESS PERIOD =   30.00000    
 NUMBER OF TIME STEPS FOR CURRENT STRESS PERIOD =    1
 TIME STEP MULTIPLIER USED IN FLOW SOLUTION =   1.000000    

 ***Type of Transport Simulation is TRANSIENT

 USER-SPECIFIED TRANSPORT STEPSIZE =   30.00000    D   
 MAXIMUM NUMBER OF TRANSPORT STEPS ALLOWED  IN ONE FLOW TIME STEP =     50000
 MULTIPLIER FOR SUCCESSIVE TRANSPORT STEPS  [USED IN IMPLICIT SCHEMES] =     1.000
 MAXIMUM TRANSPORT STEP SIZE  [USED IN IMPLICIT SCHEMES] =   0.000000    D   

       NO    LAYER   ROW   COLUMN   CONCENTRATION       TYPE            COMPONENT
       1       1       1       1       1.900000         CONSTANT HEAD       1
       2       1       1     180       1.900000         CONSTANT HEAD       1
       3       1       2       1       1.900000         CONSTANT HEAD       1
       4       1       2     180       1.900000         CONSTANT HEAD       1
       5       1       3       1       1.900000         CONSTANT HEAD       1
       6       1       3     180       1.900000         CONSTANT HEAD       1
       7       1       4       1       1.900000         CONSTANT HEAD       1
       8       1       4     180       1.900000         CONSTANT HEAD       1
       9       1       5       1       1.900000         CONSTANT HEAD       1
      10       1       5     180       1.900000         CONSTANT HEAD       1
      11       1       6       1       1.900000         CONSTANT HEAD       1
      12       1       6     180       1.900000         CONSTANT HEAD       1
      13       1       7       1       1.900000         CONSTANT HEAD       1
      14       1       7     180       1.900000         CONSTANT HEAD       1
      15       1       8       1       1.900000         CONSTANT HEAD       1
      16       1       8     180       1.900000         CONSTANT HEAD       1
      17       1       9       1       1.900000         CONSTANT HEAD       1
      18       1       9     180       1.900000         CONSTANT HEAD       1
      19       1      10       1       1.900000         CONSTANT HEAD       1
      20       1      10     180       1.900000         CONSTANT HEAD       1
      21       1      11       1       1.900000         CONSTANT HEAD       1
      22       1      11     180       1.900000         CONSTANT HEAD       1
      23       1      12       1       1.900000         CONSTANT HEAD       1
      24       1      12     180       1.900000         CONSTANT HEAD       1
      25       1      13       1       1.900000         CONSTANT HEAD       1
      26       1      13     180       1.900000         CONSTANT HEAD       1
      27       1      14       1       1.900000         CONSTANT HEAD       1
      28       1      14     180       1.900000         CONSTANT HEAD       1
      29       1      15       1       1.900000         CONSTANT HEAD       1
      30       1      15     180       1.900000         CONSTANT HEAD       1
      31       1      16       1       1.900000         CONSTANT HEAD       1
      32       1      16     180       1.900000         CONSTANT HEAD       1
      33       1      17       1       1.900000         CONSTANT HEAD       1
      34       1      17     180       1.900000         CONSTANT HEAD       1
      35       1      18       1       1.900000         CONSTANT HEAD       1
      36       1      18     180       1.900000         CONSTANT HEAD       1
      37       1      19       1       1.900000         CONSTANT HEAD       1
      38       1      19     180       1.900000         CONSTANT HEAD       1
      39       1      20       1       1.900000         CONSTANT HEAD       1
      40       1      20     180       1.900000         CONSTANT HEAD       1
      41       1      21       1       1.900000         CONSTANT HEAD       1
      42       1      21     180       1.900000         CONSTANT HEAD       1
      43       1      22       1       1.900000         CONSTANT HEAD       1
      44       1      22     180       1.900000         CONSTANT HEAD       1
      45       1      23       1       1.900000         CONSTANT HEAD       1
      46       1      23     180       1.900000         CONSTANT HEAD       1
      47       1      24       1       1.900000         CONSTANT HEAD       1
      48       1      24     180       1.900000         CONSTANT HEAD       1
      49       1      25       1       1.900000         CONSTANT HEAD       1
      50       1      25     180       1.900000         CONSTANT HEAD       1
      51       1      26       1       1.900000         CONSTANT HEAD       1
      52       1      26     180       1.900000         CONSTANT HEAD       1
      53       1      27       1       1.900000         CONSTANT HEAD       1
      54       1      27     180       1.900000         CONSTANT HEAD       1
      55       1      28       1       1.900000         CONSTANT HEAD       1
      56       1      28     180       1.900000         CONSTANT HEAD       1
      57       1      29       1       1.900000         CONSTANT HEAD       1
      58       1      29     180       1.900000         CONSTANT HEAD       1
      59       1      30       1       1.900000         CONSTANT HEAD       1
      60       1      30     180       1.900000         CONSTANT HEAD       1
      61       1      31       1       1.900000         CONSTANT HEAD       1
      62       1      31     180       1.900000         CONSTANT HEAD       1
      63       1      32       1       1.900000         CONSTANT HEAD       1
      64       1      32     180       1.900000         CONSTANT HEAD       1
      65       1      33       1       1.900000         CONSTANT HEAD       1
      66       1      33     180       1.900000         CONSTANT HEAD       1
      67       1      34       1       1.900000         CONSTANT HEAD       1
      68       1      34     180       1.900000         CONSTANT HEAD       1
      69       1      35       1       1.900000         CONSTANT HEAD       1
      70       1      35     180       1.900000         CONSTANT HEAD       1
      71       1      36       1       1.900000         CONSTANT HEAD       1
      72       1      36     180       1.900000         CONSTANT HEAD       1
      73       1      37       1       1.900000         CONSTANT HEAD       1
      74       1      37     180       1.900000         CONSTANT HEAD       1
      75       1      38       1       1.900000         CONSTANT HEAD       1
      76       1      38     180       1.900000         CONSTANT HEAD       1
      77       1      39       1       1.900000         CONSTANT HEAD       1
      78       1      39     180       1.900000         CONSTANT HEAD       1
      79       1      40       1       1.900000         CONSTANT HEAD       1
      80       1      40     180       1.900000         CONSTANT HEAD       1
      81       1      41       1       1.900000         CONSTANT HEAD       1
      82       1      41     180       1.900000         CONSTANT HEAD       1
      83       1      42       1       1.900000         CONSTANT HEAD       1
      84       1      42     180       1.900000         CONSTANT HEAD       1
      85       1      43       1       1.900000         CONSTANT HEAD       1
      86       1      43     180       1.900000         CONSTANT HEAD       1
      87       1      44       1       1.900000         CONSTANT HEAD       1
      88       1      44     180       1.900000         CONSTANT HEAD       1
      89       1      45       1       1.900000         CONSTANT HEAD       1
      90       1      45     180       1.900000         CONSTANT HEAD       1
      91       1      46       1       1.900000         CONSTANT HEAD       1
      92       1      46     180       1.900000         CONSTANT HEAD       1
      93       1      47       1       1.900000         CONSTANT HEAD       1
      94       1      47     180       1.900000         CONSTANT HEAD       1
      95       1      48       1       1.900000         CONSTANT HEAD       1
      96       1      48     180       1.900000         CONSTANT HEAD       1
      97       1      49       1       1.900000         CONSTANT HEAD       1
      98       1      49     180       1.900000         CONSTANT HEAD       1
      99       1      50       1       1.900000         CONSTANT HEAD       1
     100       1      50     180       1.900000         CONSTANT HEAD       1
     101       1      51       1       1.900000         CONSTANT HEAD       1
     102       1      51     180       1.900000         CONSTANT HEAD       1
     103       1      52       1       1.900000         CONSTANT HEAD       1
     104       1      52     180       1.900000         CONSTANT HEAD       1
     105       1      53       1       1.900000         CONSTANT HEAD       1
     106       1      53     180       1.900000         CONSTANT HEAD       1
     107       1      54       1       1.900000         CONSTANT HEAD       1
     108       1      54     180       1.900000         CONSTANT HEAD       1
     109       1      55       1       1.900000         CONSTANT HEAD       1
     110       1      55     180       1.900000         CONSTANT HEAD       1
     111       1      56       1       1.900000         CONSTANT HEAD       1
     112       1      56     180       1.900000         CONSTANT HEAD       1
     113       1      57       1       1.900000         CONSTANT HEAD       1
     114       1      57     180       1.900000         CONSTANT HEAD       1
     115       1      58       1       1.900000         CONSTANT HEAD       1
     116       1      58     180       1.900000         CONSTANT HEAD       1
     117       1      59       1       1.900000         CONSTANT HEAD       1
     118       1      59     180       1.900000         CONSTANT HEAD       1
     119       1      60       1       1.900000         CONSTANT HEAD       1
     120       1      60     180       1.900000         CONSTANT HEAD       1
     121       1      61       1       1.900000         CONSTANT HEAD       1
     122       1      61     180       1.900000         CONSTANT HEAD       1
     123       1      62       1       1.900000         CONSTANT HEAD       1
     124       1      62     180       1.900000         CONSTANT HEAD       1
     125       1      63       1       1.900000         CONSTANT HEAD       1
     126       1      63     180       1.900000         CONSTANT HEAD       1
     127       1      64       1       1.900000         CONSTANT HEAD       1
     128       1      64     180       1.900000         CONSTANT HEAD       1
     129       1      65       1       1.900000         CONSTANT HEAD       1
     130       1      65     180       1.900000         CONSTANT HEAD       1
     131       1      66       1       1.900000         CONSTANT HEAD       1
     132       1      66     180       1.900000         CONSTANT HEAD       1
     133       1      67       1       1.900000         CONSTANT HEAD       1
     134       1      67     180       1.900000         CONSTANT HEAD       1
     135       1      68       1       1.900000         CONSTANT HEAD       1
     136       1      68     180       1.900000         CONSTANT HEAD       1
     137       1      69       1       1.900000         CONSTANT HEAD       1
     138       1      69     180       1.900000         CONSTANT HEAD       1
     139       1      70       1       1.900000         CONSTANT HEAD       1
     140       1      70     180       1.900000         CONSTANT HEAD       1
     141       1      71       1       1.900000         CONSTANT HEAD       1
     142       1      71     180       1.900000         CONSTANT HEAD       1
     143       1      72       1       1.900000         CONSTANT HEAD       1
     144       1      72     180       1.900000         CONSTANT HEAD       1
     145       1      73       1       1.900000         CONSTANT HEAD       1
     146       1      73     180       1.900000         CONSTANT HEAD       1
     147       1      74       1       1.900000         CONSTANT HEAD       1
     148       1      74     180       1.900000         CONSTANT HEAD       1
     149       1      75       1       1.900000         CONSTANT HEAD       1
     150       1      75     180       1.900000         CONSTANT HEAD       1
     151       1      76       1       1.900000         CONSTANT HEAD       1
     152       1      76     180       1.900000         CONSTANT HEAD       1
     153       1      77       1       1.900000         CONSTANT HEAD       1
     154       1      77     180       1.900000         CONSTANT HEAD       1
     155       1      78       1       1.900000         CONSTANT HEAD       1
     156       1      78     180       1.900000         CONSTANT HEAD       1
     157       1      79       1       1.900000         CONSTANT HEAD       1
     158       1      79     180       1.900000         CONSTANT HEAD       1
     159       1      80       1       1.900000         CONSTANT HEAD       1
     160       1      80     180       1.900000         CONSTANT HEAD       1
     161       1      81       1       1.900000         CONSTANT HEAD       1
     162       1      81     180       1.900000         CONSTANT HEAD       1
     163       1      82       1       1.900000         CONSTANT HEAD       1
     164       1      82     180       1.900000         CONSTANT HEAD       1
     165       1      83       1       1.900000         CONSTANT HEAD       1
     166       1      83     180       1.900000         CONSTANT HEAD       1
     167       1      84       1       1.900000         CONSTANT HEAD       1
     168       1      84     180       1.900000         CONSTANT HEAD       1
     169       1      85       1       1.900000         CONSTANT HEAD       1
     170       1      85     180       1.900000         CONSTANT HEAD       1
     171       1      86       1       1.900000         CONSTANT HEAD       1
     172       1      86     180       1.900000         CONSTANT HEAD       1
     173       1      87       1       1.900000         CONSTANT HEAD       1
     174       1      87     180       1.900000         CONSTANT HEAD       1
     175       1      88       1       1.900000         CONSTANT HEAD       1
     176       1      88     180       1.900000         CONSTANT HEAD       1
     177       1      89       1       1.900000         CONSTANT HEAD       1
     178       1      89     180       1.900000         CONSTANT HEAD       1
     179       1      90       1       1.900000         CONSTANT HEAD       1
     180       1      90     180       1.900000         CONSTANT HEAD       1
     181       1      91       1       1.900000         CONSTANT HEAD       1
     182       1      91     180       1.900000         CONSTANT HEAD       1
     183       1      92       1       1.900000         CONSTANT HEAD       1
     184       1      92     180       1.900000         CONSTANT HEAD       1
     185       1      93       1       1.900000         CONSTANT HEAD       1
     186       1      93     180       1.900000         CONSTANT HEAD       1
     187       1      94       1       1.900000         CONSTANT HEAD       1
     188       1      94     180       1.900000         CONSTANT HEAD       1
     189       1      95       1       1.900000         CONSTANT HEAD       1
     190       1      95     180       1.900000         CONSTANT HEAD       1
     191       1      96       1       1.900000         CONSTANT HEAD       1
     192       1      96     180       1.900000         CONSTANT HEAD       1
     193       1      97       1       1.900000         CONSTANT HEAD       1
     194       1      97     180       1.900000         CONSTANT HEAD       1
     195       1      98       1       1.900000         CONSTANT HEAD       1
     196       1      98     180       1.900000         CONSTANT HEAD       1
     197       1      99       1       1.900000         CONSTANT HEAD       1
     198       1      99     180       1.900000         CONSTANT HEAD       1
     199       1     100       1       1.900000         CONSTANT HEAD       1
     200       1     100     180       1.900000         CONSTANT HEAD       1
     201       1     101       1       1.900000         CONSTANT HEAD       1
     202       1     101     180       1.900000         CONSTANT HEAD       1
     203       1     102       1       1.900000         CONSTANT HEAD       1
     204       1     102     180       1.900000         CONSTANT HEAD       1
     205       1     103       1       1.900000         CONSTANT HEAD       1
     206       1     103     180       1.900000         CONSTANT HEAD       1
     207       1     104       1       1.900000         CONSTANT HEAD       1
     208       1     104     180       1.900000         CONSTANT HEAD       1
     209       1     105       1       1.900000         CONSTANT HEAD       1
     210       1     105     180       1.900000         CONSTANT HEAD       1
     211       1     106       1       1.900000         CONSTANT HEAD       1
     212       1     106     180       1.900000         CONSTANT HEAD       1
     213       1     107       1       1.900000         CONSTANT HEAD       1
     214       1     107     180       1.900000         CONSTANT HEAD       1
     215       1     108       1       1.900000         CONSTANT HEAD       1
     216       1     108     180       1.900000         CONSTANT HEAD       1
     217       1     109       1       1.900000         CONSTANT HEAD       1
     218       1     109     180       1.900000         CONSTANT HEAD       1
     219       1     110       1       1.900000         CONSTANT HEAD       1
     220       1     110     180       1.900000         CONSTANT HEAD       1
     221       1     111       1       1.900000         CONSTANT HEAD       1
     222       1     111     180       1.900000         CONSTANT HEAD       1
     223       1     112       1       1.900000         CONSTANT HEAD       1
     224       1     112     180       1.900000         CONSTANT HEAD       1
     225       1     113       1       1.900000         CONSTANT HEAD       1
     226       1     113     180       1.900000         CONSTANT HEAD       1
     227       1     114       1       1.900000         CONSTANT HEAD       1
     228       1     114     180       1.900000         CONSTANT HEAD       1
     229       1     115       1       1.900000         CONSTANT HEAD       1
     230       1     115     180       1.900000         CONSTANT HEAD       1
     231       1     116       1       1.900000         CONSTANT HEAD       1
     232       1     116     180       1.900000         CONSTANT HEAD       1
     233       1     117       1       1.900000         CONSTANT HEAD       1
     234       1     117     180       1.900000         CONSTANT HEAD       1
     235       1     118       1       1.900000         CONSTANT HEAD       1
     236       1     118     180       1.900000         CONSTANT HEAD       1
     237       1     119       1       1.900000         CONSTANT HEAD       1
     238       1     119     180       1.900000         CONSTANT HEAD       1
     239       1     120       1       1.900000         CONSTANT HEAD       1
     240       1     120     180       1.900000         CONSTANT HEAD       1
     241       1     121       1       1.900000         CONSTANT HEAD       1
     242       1     121     180       1.900000         CONSTANT HEAD       1
     243       1     122       1       1.900000         CONSTANT HEAD       1
     244       1     122     180       1.900000         CONSTANT HEAD       1
     245       1     123       1       1.900000         CONSTANT HEAD       1
     246       1     123     180       1.900000         CONSTANT HEAD       1
     247       1     124       1       1.900000         CONSTANT HEAD       1
     248       1     124     180       1.900000         CONSTANT HEAD       1
     249       1     125       1       1.900000         CONSTANT HEAD       1
     250       1     125     180       1.900000         CONSTANT HEAD       1
     251       1     126       1       1.900000         CONSTANT HEAD       1
     252       1     126     180       1.900000         CONSTANT HEAD       1
     253       1     127       1       1.900000         CONSTANT HEAD       1
     254       1     127     180       1.900000         CONSTANT HEAD       1
     255       1     128       1       1.900000         CONSTANT HEAD       1
     256       1     128     180       1.900000         CONSTANT HEAD       1
     257       1     129       1       1.900000         CONSTANT HEAD       1
     258       1     129     180       1.900000         CONSTANT HEAD       1
     259       1     130       1       1.900000         CONSTANT HEAD       1
     260       1     130     180       1.900000         CONSTANT HEAD       1
     261       1     131       1       1.900000         CONSTANT HEAD       1
     262       1     131     180       1.900000         CONSTANT HEAD       1
     263       1     132       1       1.900000         CONSTANT HEAD       1
     264       1     132     180       1.900000         CONSTANT HEAD       1
     265       1     133       1       1.900000         CONSTANT HEAD       1
     266       1     133     180       1.900000         CONSTANT HEAD       1
     267       1     134       1       1.900000         CONSTANT HEAD       1
     268       1     134     180       1.900000         CONSTANT HEAD       1
     269       1     135       1       1.900000         CONSTANT HEAD       1
     270       1     135     180       1.900000         CONSTANT HEAD       1
     271       1     136       1       1.900000         CONSTANT HEAD       1
     272       1     136     180       1.900000         CONSTANT HEAD       1
     273       1     137       1       1.900000         CONSTANT HEAD       1
     274       1     137     180       1.900000         CONSTANT HEAD       1
     275       1     138       1       1.900000         CONSTANT HEAD       1
     276       1     138     180       1.900000         CONSTANT HEAD       1
     277       1     139       1       1.900000         CONSTANT HEAD       1
     278       1     139     180       1.900000         CONSTANT HEAD       1
     279       1     140       1       1.900000         CONSTANT HEAD       1
     280       1     140     180       1.900000         CONSTANT HEAD       1
     281       1     141       1       1.900000         CONSTANT HEAD       1
     282       1     141     180       1.900000         CONSTANT HEAD       1
     283       1     142       1       1.900000         CONSTANT HEAD       1
     284       1     142     180       1.900000         CONSTANT HEAD       1
     285       1     143       1       1.900000         CONSTANT HEAD       1
     286       1     143     180       1.900000         CONSTANT HEAD       1
     287       1     144       1       1.900000         CONSTANT HEAD       1
     288       1     144     180       1.900000         CONSTANT HEAD       1
     289       1     145       1       1.900000         CONSTANT HEAD       1
     290       1     145     180       1.900000         CONSTANT HEAD       1
     291       1     146       1       1.900000         CONSTANT HEAD       1
     292       1     146     180       1.900000         CONSTANT HEAD       1
     293       1     147       1       1.900000         CONSTANT HEAD       1
     294       1     147     180       1.900000         CONSTANT HEAD       1
     295       1     148       1       1.900000         CONSTANT HEAD       1
     296       1     148     180       1.900000         CONSTANT HEAD       1
     297       1     149       1       1.900000         CONSTANT HEAD       1
     298       1     149     180       1.900000         CONSTANT HEAD       1
     299       1     150       1       1.900000         CONSTANT HEAD       1
     300       1     150     180       1.900000         CONSTANT HEAD       1
     301       1     151       1       1.900000         CONSTANT HEAD       1
     302       1     151     180       1.900000         CONSTANT HEAD       1
     303       1     152       1       1.900000         CONSTANT HEAD       1
     304       1     152     180       1.900000         CONSTANT HEAD       1
     305       1     153       1       1.900000         CONSTANT HEAD       1
     306       1     153     180       1.900000         CONSTANT HEAD       1
     307       1     154       1       1.900000         CONSTANT HEAD       1
     308       1     154     180       1.900000         CONSTANT HEAD       1
     309       1     155       1       1.900000         CONSTANT HEAD       1
     310       1     155     180       1.900000         CONSTANT HEAD       1
     311       1     156       1       1.900000         CONSTANT HEAD       1
     312       1     156     180       1.900000         CONSTANT HEAD       1
     313       1     157       1       1.900000         CONSTANT HEAD       1
     314       1     157     180       1.900000         CONSTANT HEAD       1
     315       1     158       1       1.900000         CONSTANT HEAD       1
     316       1     158     180       1.900000         CONSTANT HEAD       1
     317       1     159       1       1.900000         CONSTANT HEAD       1
     318       1     159     180       1.900000         CONSTANT HEAD       1
     319       1     160       1       1.900000         CONSTANT HEAD       1
     320       1     160     180       1.900000         CONSTANT HEAD       1
     321       1     161       1       1.900000         CONSTANT HEAD       1
     322       1     161     180       1.900000         CONSTANT HEAD       1
     323       1     162       1       1.900000         CONSTANT HEAD       1
     324       1     162     180       1.900000         CONSTANT HEAD       1
     325       1     163       1       1.900000         CONSTANT HEAD       1
     326       1     163     180       1.900000         CONSTANT HEAD       1
     327       1     164       1       1.900000         CONSTANT HEAD       1
     328       1     164     180       1.900000         CONSTANT HEAD       1
     329       1     165       1       1.900000         CONSTANT HEAD       1
     330       1     165     180       1.900000         CONSTANT HEAD       1
     331       1     166       1       1.900000         CONSTANT HEAD       1
     332       1     166     180       1.900000         CONSTANT HEAD       1
     333       1     167       1       1.900000         CONSTANT HEAD       1
     334       1     167     180       1.900000         CONSTANT HEAD       1
     335       1     168       1       1.900000         CONSTANT HEAD       1
     336       1     168     180       1.900000         CONSTANT HEAD       1
     337       1     169       1       1.900000         CONSTANT HEAD       1
     338       1     169     180       1.900000         CONSTANT HEAD       1
     339       1     170       1       1.900000         CONSTANT HEAD       1
     340       1     170     180       1.900000         CONSTANT HEAD       1
     341       1     171       1       1.900000         CONSTANT HEAD       1
     342       1     171     180       1.900000         CONSTANT HEAD       1
     343       1     172       1       1.900000         CONSTANT HEAD       1
     344       1     172     180       1.900000         CONSTANT HEAD       1
     345       1     173       1       1.900000         CONSTANT HEAD       1
     346       1     173     180       1.900000         CONSTANT HEAD       1
     347       1     174       1       1.900000         CONSTANT HEAD       1
     348       1     174     180       1.900000         CONSTANT HEAD       1
     349       1     175       1       1.900000         CONSTANT HEAD       1
     350       1     175     180       1.900000         CONSTANT HEAD       1
     351       1     176       1       1.900000         CONSTANT HEAD       1
     352       1     176     180       1.900000         CONSTANT HEAD       1
     353       1     177       1       1.900000         CONSTANT HEAD       1
     354       1     177     180       1.900000         CONSTANT HEAD       1
     355       1     178       1       1.900000         CONSTANT HEAD       1
     356       1     178     180       1.900000         CONSTANT HEAD       1
     357       1     179       1       1.900000         CONSTANT HEAD       1
     358       1     179     180       1.900000         CONSTANT HEAD       1
     359       1     180       1       1.900000         CONSTANT HEAD       1
     360       1     180     180       1.900000         CONSTANT HEAD       1
     361       1      91      91      0.1500000         WELL                1


                                          ================================================
                                                         TIME STEP NO.  001
                                          ================================================

 FROM TIME =   270.00     TO    300.00    


                    "THKSAT          " FLOW TERMS FOR TIME STEP  1, STRESS PERIOD 10 READ UNFORMATTED ON UNIT 10
                    --------------------------------------------------------------------------------------------

                    "QXX             " FLOW TERMS FOR TIME STEP  1, STRESS PERIOD 10 READ UNFORMATTED ON UNIT 10
                    --------------------------------------------------------------------------------------------

                    "QYY             " FLOW TERMS FOR TIME STEP  1, STRESS PERIOD 10 READ UNFORMATTED ON UNIT 10
                    --------------------------------------------------------------------------------------------

                    "STO             " FLOW TERMS FOR TIME STEP  1, STRESS PERIOD 10 READ UNFORMATTED ON UNIT 10
                    --------------------------------------------------------------------------------------------

 MAXIMUM STEPSIZE DURING WHICH ANY PARTICLE CANNOT MOVE MORE THAN ONE CELL
 =  1.215    (WHEN MIN. R.F.=1)  AT K=   1, I=  91, J=  92

 MAXIMUM STEPSIZE WHICH MEETS STABILITY CRITERION OF THE ADVECTION TERM
 (FOR PURE FINITE-DIFFERENCE OPTION, MIXELM=0) 
 = 0.4419    (WHEN MIN. R.F.=1)  AT K=   1, I=  91, J=  91

                    "CNH             " FLOW TERMS FOR TIME STEP  1, STRESS PERIOD 10 READ UNFORMATTED ON UNIT 10
                    --------------------------------------------------------------------------------------------

                    "WEL             " FLOW TERMS FOR TIME STEP  1, STRESS PERIOD 10 READ UNFORMATTED ON UNIT 10
                    --------------------------------------------------------------------------------------------


 TOTAL NUMBER OF POINT SOURCES/SINKS PRESENT IN THE FLOW MODEL =   361

 MAXIMUM STEPSIZE WHICH MEETS STABILITY CRITERION OF THE SINK & SOURCE TERM
 = 0.5369E+05(WHEN MIN. R.F.=1)  AT K=   1, I=   1, J= 180

 MAXIMUM STEPSIZE WHICH MEETS STABILITY CRITERION OF THE DISPERSION TERM
 = 0.2210    (WHEN MIN. R.F.=1)  AT K=   1, I=  91, J=  91


     1 CALLS TO GCG PACKAGE FOR TRANSPORT TIME STEP     1 IN FLOW TIME STEP     1 STRESS PERIOD    10
      7 TOTAL ITERATIONS
  MAXIMUM CONCENTRATION CHANGES FOR EACH ITERATION:
  MAX. CHANGE LAYER,ROW,COL MAX. CHANGE LAYER,ROW,COL MAX. CHANGE LAYER,ROW,COL MAX. CHANGE LAYER,ROW,COL MAX. CHANGE LAYER,ROW,COL
 ------------------------------------------------------------------------------------------------------------------------------------
   0.1725     (  1, 91, 91)  0.7190E-02 (  1, 91, 91)  0.4266E-02 (  1, 91, 91)  0.3086E-03 (  1, 91, 93)  0.2164E-03 (  1, 92, 91)
   0.4035E-04 (  1, 91, 92)  0.4247E-05 (  1, 92, 92)



 >>>>>>>>>>>>>>>>>>>>>>>>>>>>>>>>>>>>>>>>>>>>>>>>>>>>>>>FOR COMPONENT NO. 01<<<<<<<<<<<<<<<<<<<<<<<<<<<<<<<<<<<<<<<<<<<<<<<<<<<<<<<


                                            -------------------------------------------
                                                      TRANSPORT STEP NO.    1
                                            -------------------------------------------

 TOTAL ELAPSED TIME SINCE BEGINNING OF SIMULATION =   300.0000    D   
 .....................................................................

                     CUMULATIVE MASS BUDGETS AT END OF TRANSPORT STEP    1, TIME STEP    1, STRESS PERIOD   10
                     -----------------------------------------------------------------------------------------

                                                             IN                           OUT
                                                      ----------------             ----------------
                               CONSTANT CONCENTRATION:    0.000000                    0.000000    
                                        CONSTANT HEAD:    2503859.                   -2565192.    
                                                WELLS:    52743.33                   -63148.38    
                               MASS STOR (FLOW MODEL):    2305226.                   -2634494.    
                                MASS STORAGE (SOLUTE):    611630.1                   -210321.1    
                            ---------------------------------------------------------------------------
                                              [TOTAL]:    5473459.     KG            -5473155.     KG  

                                                          NET (IN - OUT):    304.0000    
                                                   DISCREPANCY (PERCENT):   0.5554229E-02


                                   ++++++++++++++++++++++++++++++++++++++++++++++++++++++++++++++
                                                       STRESS PERIOD NO.  011
                                   ++++++++++++++++++++++++++++++++++++++++++++++++++++++++++++++


 LENGTH OF CURRENT STRESS PERIOD =   30.00000    
 NUMBER OF TIME STEPS FOR CURRENT STRESS PERIOD =    1
 TIME STEP MULTIPLIER USED IN FLOW SOLUTION =   1.000000    

 ***Type of Transport Simulation is TRANSIENT

 USER-SPECIFIED TRANSPORT STEPSIZE =   30.00000    D   
 MAXIMUM NUMBER OF TRANSPORT STEPS ALLOWED  IN ONE FLOW TIME STEP =     50000
 MULTIPLIER FOR SUCCESSIVE TRANSPORT STEPS  [USED IN IMPLICIT SCHEMES] =     1.000
 MAXIMUM TRANSPORT STEP SIZE  [USED IN IMPLICIT SCHEMES] =   0.000000    D   

       NO    LAYER   ROW   COLUMN   CONCENTRATION       TYPE            COMPONENT
       1       1       1       1       1.900000         CONSTANT HEAD       1
       2       1       1     180       1.900000         CONSTANT HEAD       1
       3       1       2       1       1.900000         CONSTANT HEAD       1
       4       1       2     180       1.900000         CONSTANT HEAD       1
       5       1       3       1       1.900000         CONSTANT HEAD       1
       6       1       3     180       1.900000         CONSTANT HEAD       1
       7       1       4       1       1.900000         CONSTANT HEAD       1
       8       1       4     180       1.900000         CONSTANT HEAD       1
       9       1       5       1       1.900000         CONSTANT HEAD       1
      10       1       5     180       1.900000         CONSTANT HEAD       1
      11       1       6       1       1.900000         CONSTANT HEAD       1
      12       1       6     180       1.900000         CONSTANT HEAD       1
      13       1       7       1       1.900000         CONSTANT HEAD       1
      14       1       7     180       1.900000         CONSTANT HEAD       1
      15       1       8       1       1.900000         CONSTANT HEAD       1
      16       1       8     180       1.900000         CONSTANT HEAD       1
      17       1       9       1       1.900000         CONSTANT HEAD       1
      18       1       9     180       1.900000         CONSTANT HEAD       1
      19       1      10       1       1.900000         CONSTANT HEAD       1
      20       1      10     180       1.900000         CONSTANT HEAD       1
      21       1      11       1       1.900000         CONSTANT HEAD       1
      22       1      11     180       1.900000         CONSTANT HEAD       1
      23       1      12       1       1.900000         CONSTANT HEAD       1
      24       1      12     180       1.900000         CONSTANT HEAD       1
      25       1      13       1       1.900000         CONSTANT HEAD       1
      26       1      13     180       1.900000         CONSTANT HEAD       1
      27       1      14       1       1.900000         CONSTANT HEAD       1
      28       1      14     180       1.900000         CONSTANT HEAD       1
      29       1      15       1       1.900000         CONSTANT HEAD       1
      30       1      15     180       1.900000         CONSTANT HEAD       1
      31       1      16       1       1.900000         CONSTANT HEAD       1
      32       1      16     180       1.900000         CONSTANT HEAD       1
      33       1      17       1       1.900000         CONSTANT HEAD       1
      34       1      17     180       1.900000         CONSTANT HEAD       1
      35       1      18       1       1.900000         CONSTANT HEAD       1
      36       1      18     180       1.900000         CONSTANT HEAD       1
      37       1      19       1       1.900000         CONSTANT HEAD       1
      38       1      19     180       1.900000         CONSTANT HEAD       1
      39       1      20       1       1.900000         CONSTANT HEAD       1
      40       1      20     180       1.900000         CONSTANT HEAD       1
      41       1      21       1       1.900000         CONSTANT HEAD       1
      42       1      21     180       1.900000         CONSTANT HEAD       1
      43       1      22       1       1.900000         CONSTANT HEAD       1
      44       1      22     180       1.900000         CONSTANT HEAD       1
      45       1      23       1       1.900000         CONSTANT HEAD       1
      46       1      23     180       1.900000         CONSTANT HEAD       1
      47       1      24       1       1.900000         CONSTANT HEAD       1
      48       1      24     180       1.900000         CONSTANT HEAD       1
      49       1      25       1       1.900000         CONSTANT HEAD       1
      50       1      25     180       1.900000         CONSTANT HEAD       1
      51       1      26       1       1.900000         CONSTANT HEAD       1
      52       1      26     180       1.900000         CONSTANT HEAD       1
      53       1      27       1       1.900000         CONSTANT HEAD       1
      54       1      27     180       1.900000         CONSTANT HEAD       1
      55       1      28       1       1.900000         CONSTANT HEAD       1
      56       1      28     180       1.900000         CONSTANT HEAD       1
      57       1      29       1       1.900000         CONSTANT HEAD       1
      58       1      29     180       1.900000         CONSTANT HEAD       1
      59       1      30       1       1.900000         CONSTANT HEAD       1
      60       1      30     180       1.900000         CONSTANT HEAD       1
      61       1      31       1       1.900000         CONSTANT HEAD       1
      62       1      31     180       1.900000         CONSTANT HEAD       1
      63       1      32       1       1.900000         CONSTANT HEAD       1
      64       1      32     180       1.900000         CONSTANT HEAD       1
      65       1      33       1       1.900000         CONSTANT HEAD       1
      66       1      33     180       1.900000         CONSTANT HEAD       1
      67       1      34       1       1.900000         CONSTANT HEAD       1
      68       1      34     180       1.900000         CONSTANT HEAD       1
      69       1      35       1       1.900000         CONSTANT HEAD       1
      70       1      35     180       1.900000         CONSTANT HEAD       1
      71       1      36       1       1.900000         CONSTANT HEAD       1
      72       1      36     180       1.900000         CONSTANT HEAD       1
      73       1      37       1       1.900000         CONSTANT HEAD       1
      74       1      37     180       1.900000         CONSTANT HEAD       1
      75       1      38       1       1.900000         CONSTANT HEAD       1
      76       1      38     180       1.900000         CONSTANT HEAD       1
      77       1      39       1       1.900000         CONSTANT HEAD       1
      78       1      39     180       1.900000         CONSTANT HEAD       1
      79       1      40       1       1.900000         CONSTANT HEAD       1
      80       1      40     180       1.900000         CONSTANT HEAD       1
      81       1      41       1       1.900000         CONSTANT HEAD       1
      82       1      41     180       1.900000         CONSTANT HEAD       1
      83       1      42       1       1.900000         CONSTANT HEAD       1
      84       1      42     180       1.900000         CONSTANT HEAD       1
      85       1      43       1       1.900000         CONSTANT HEAD       1
      86       1      43     180       1.900000         CONSTANT HEAD       1
      87       1      44       1       1.900000         CONSTANT HEAD       1
      88       1      44     180       1.900000         CONSTANT HEAD       1
      89       1      45       1       1.900000         CONSTANT HEAD       1
      90       1      45     180       1.900000         CONSTANT HEAD       1
      91       1      46       1       1.900000         CONSTANT HEAD       1
      92       1      46     180       1.900000         CONSTANT HEAD       1
      93       1      47       1       1.900000         CONSTANT HEAD       1
      94       1      47     180       1.900000         CONSTANT HEAD       1
      95       1      48       1       1.900000         CONSTANT HEAD       1
      96       1      48     180       1.900000         CONSTANT HEAD       1
      97       1      49       1       1.900000         CONSTANT HEAD       1
      98       1      49     180       1.900000         CONSTANT HEAD       1
      99       1      50       1       1.900000         CONSTANT HEAD       1
     100       1      50     180       1.900000         CONSTANT HEAD       1
     101       1      51       1       1.900000         CONSTANT HEAD       1
     102       1      51     180       1.900000         CONSTANT HEAD       1
     103       1      52       1       1.900000         CONSTANT HEAD       1
     104       1      52     180       1.900000         CONSTANT HEAD       1
     105       1      53       1       1.900000         CONSTANT HEAD       1
     106       1      53     180       1.900000         CONSTANT HEAD       1
     107       1      54       1       1.900000         CONSTANT HEAD       1
     108       1      54     180       1.900000         CONSTANT HEAD       1
     109       1      55       1       1.900000         CONSTANT HEAD       1
     110       1      55     180       1.900000         CONSTANT HEAD       1
     111       1      56       1       1.900000         CONSTANT HEAD       1
     112       1      56     180       1.900000         CONSTANT HEAD       1
     113       1      57       1       1.900000         CONSTANT HEAD       1
     114       1      57     180       1.900000         CONSTANT HEAD       1
     115       1      58       1       1.900000         CONSTANT HEAD       1
     116       1      58     180       1.900000         CONSTANT HEAD       1
     117       1      59       1       1.900000         CONSTANT HEAD       1
     118       1      59     180       1.900000         CONSTANT HEAD       1
     119       1      60       1       1.900000         CONSTANT HEAD       1
     120       1      60     180       1.900000         CONSTANT HEAD       1
     121       1      61       1       1.900000         CONSTANT HEAD       1
     122       1      61     180       1.900000         CONSTANT HEAD       1
     123       1      62       1       1.900000         CONSTANT HEAD       1
     124       1      62     180       1.900000         CONSTANT HEAD       1
     125       1      63       1       1.900000         CONSTANT HEAD       1
     126       1      63     180       1.900000         CONSTANT HEAD       1
     127       1      64       1       1.900000         CONSTANT HEAD       1
     128       1      64     180       1.900000         CONSTANT HEAD       1
     129       1      65       1       1.900000         CONSTANT HEAD       1
     130       1      65     180       1.900000         CONSTANT HEAD       1
     131       1      66       1       1.900000         CONSTANT HEAD       1
     132       1      66     180       1.900000         CONSTANT HEAD       1
     133       1      67       1       1.900000         CONSTANT HEAD       1
     134       1      67     180       1.900000         CONSTANT HEAD       1
     135       1      68       1       1.900000         CONSTANT HEAD       1
     136       1      68     180       1.900000         CONSTANT HEAD       1
     137       1      69       1       1.900000         CONSTANT HEAD       1
     138       1      69     180       1.900000         CONSTANT HEAD       1
     139       1      70       1       1.900000         CONSTANT HEAD       1
     140       1      70     180       1.900000         CONSTANT HEAD       1
     141       1      71       1       1.900000         CONSTANT HEAD       1
     142       1      71     180       1.900000         CONSTANT HEAD       1
     143       1      72       1       1.900000         CONSTANT HEAD       1
     144       1      72     180       1.900000         CONSTANT HEAD       1
     145       1      73       1       1.900000         CONSTANT HEAD       1
     146       1      73     180       1.900000         CONSTANT HEAD       1
     147       1      74       1       1.900000         CONSTANT HEAD       1
     148       1      74     180       1.900000         CONSTANT HEAD       1
     149       1      75       1       1.900000         CONSTANT HEAD       1
     150       1      75     180       1.900000         CONSTANT HEAD       1
     151       1      76       1       1.900000         CONSTANT HEAD       1
     152       1      76     180       1.900000         CONSTANT HEAD       1
     153       1      77       1       1.900000         CONSTANT HEAD       1
     154       1      77     180       1.900000         CONSTANT HEAD       1
     155       1      78       1       1.900000         CONSTANT HEAD       1
     156       1      78     180       1.900000         CONSTANT HEAD       1
     157       1      79       1       1.900000         CONSTANT HEAD       1
     158       1      79     180       1.900000         CONSTANT HEAD       1
     159       1      80       1       1.900000         CONSTANT HEAD       1
     160       1      80     180       1.900000         CONSTANT HEAD       1
     161       1      81       1       1.900000         CONSTANT HEAD       1
     162       1      81     180       1.900000         CONSTANT HEAD       1
     163       1      82       1       1.900000         CONSTANT HEAD       1
     164       1      82     180       1.900000         CONSTANT HEAD       1
     165       1      83       1       1.900000         CONSTANT HEAD       1
     166       1      83     180       1.900000         CONSTANT HEAD       1
     167       1      84       1       1.900000         CONSTANT HEAD       1
     168       1      84     180       1.900000         CONSTANT HEAD       1
     169       1      85       1       1.900000         CONSTANT HEAD       1
     170       1      85     180       1.900000         CONSTANT HEAD       1
     171       1      86       1       1.900000         CONSTANT HEAD       1
     172       1      86     180       1.900000         CONSTANT HEAD       1
     173       1      87       1       1.900000         CONSTANT HEAD       1
     174       1      87     180       1.900000         CONSTANT HEAD       1
     175       1      88       1       1.900000         CONSTANT HEAD       1
     176       1      88     180       1.900000         CONSTANT HEAD       1
     177       1      89       1       1.900000         CONSTANT HEAD       1
     178       1      89     180       1.900000         CONSTANT HEAD       1
     179       1      90       1       1.900000         CONSTANT HEAD       1
     180       1      90     180       1.900000         CONSTANT HEAD       1
     181       1      91       1       1.900000         CONSTANT HEAD       1
     182       1      91     180       1.900000         CONSTANT HEAD       1
     183       1      92       1       1.900000         CONSTANT HEAD       1
     184       1      92     180       1.900000         CONSTANT HEAD       1
     185       1      93       1       1.900000         CONSTANT HEAD       1
     186       1      93     180       1.900000         CONSTANT HEAD       1
     187       1      94       1       1.900000         CONSTANT HEAD       1
     188       1      94     180       1.900000         CONSTANT HEAD       1
     189       1      95       1       1.900000         CONSTANT HEAD       1
     190       1      95     180       1.900000         CONSTANT HEAD       1
     191       1      96       1       1.900000         CONSTANT HEAD       1
     192       1      96     180       1.900000         CONSTANT HEAD       1
     193       1      97       1       1.900000         CONSTANT HEAD       1
     194       1      97     180       1.900000         CONSTANT HEAD       1
     195       1      98       1       1.900000         CONSTANT HEAD       1
     196       1      98     180       1.900000         CONSTANT HEAD       1
     197       1      99       1       1.900000         CONSTANT HEAD       1
     198       1      99     180       1.900000         CONSTANT HEAD       1
     199       1     100       1       1.900000         CONSTANT HEAD       1
     200       1     100     180       1.900000         CONSTANT HEAD       1
     201       1     101       1       1.900000         CONSTANT HEAD       1
     202       1     101     180       1.900000         CONSTANT HEAD       1
     203       1     102       1       1.900000         CONSTANT HEAD       1
     204       1     102     180       1.900000         CONSTANT HEAD       1
     205       1     103       1       1.900000         CONSTANT HEAD       1
     206       1     103     180       1.900000         CONSTANT HEAD       1
     207       1     104       1       1.900000         CONSTANT HEAD       1
     208       1     104     180       1.900000         CONSTANT HEAD       1
     209       1     105       1       1.900000         CONSTANT HEAD       1
     210       1     105     180       1.900000         CONSTANT HEAD       1
     211       1     106       1       1.900000         CONSTANT HEAD       1
     212       1     106     180       1.900000         CONSTANT HEAD       1
     213       1     107       1       1.900000         CONSTANT HEAD       1
     214       1     107     180       1.900000         CONSTANT HEAD       1
     215       1     108       1       1.900000         CONSTANT HEAD       1
     216       1     108     180       1.900000         CONSTANT HEAD       1
     217       1     109       1       1.900000         CONSTANT HEAD       1
     218       1     109     180       1.900000         CONSTANT HEAD       1
     219       1     110       1       1.900000         CONSTANT HEAD       1
     220       1     110     180       1.900000         CONSTANT HEAD       1
     221       1     111       1       1.900000         CONSTANT HEAD       1
     222       1     111     180       1.900000         CONSTANT HEAD       1
     223       1     112       1       1.900000         CONSTANT HEAD       1
     224       1     112     180       1.900000         CONSTANT HEAD       1
     225       1     113       1       1.900000         CONSTANT HEAD       1
     226       1     113     180       1.900000         CONSTANT HEAD       1
     227       1     114       1       1.900000         CONSTANT HEAD       1
     228       1     114     180       1.900000         CONSTANT HEAD       1
     229       1     115       1       1.900000         CONSTANT HEAD       1
     230       1     115     180       1.900000         CONSTANT HEAD       1
     231       1     116       1       1.900000         CONSTANT HEAD       1
     232       1     116     180       1.900000         CONSTANT HEAD       1
     233       1     117       1       1.900000         CONSTANT HEAD       1
     234       1     117     180       1.900000         CONSTANT HEAD       1
     235       1     118       1       1.900000         CONSTANT HEAD       1
     236       1     118     180       1.900000         CONSTANT HEAD       1
     237       1     119       1       1.900000         CONSTANT HEAD       1
     238       1     119     180       1.900000         CONSTANT HEAD       1
     239       1     120       1       1.900000         CONSTANT HEAD       1
     240       1     120     180       1.900000         CONSTANT HEAD       1
     241       1     121       1       1.900000         CONSTANT HEAD       1
     242       1     121     180       1.900000         CONSTANT HEAD       1
     243       1     122       1       1.900000         CONSTANT HEAD       1
     244       1     122     180       1.900000         CONSTANT HEAD       1
     245       1     123       1       1.900000         CONSTANT HEAD       1
     246       1     123     180       1.900000         CONSTANT HEAD       1
     247       1     124       1       1.900000         CONSTANT HEAD       1
     248       1     124     180       1.900000         CONSTANT HEAD       1
     249       1     125       1       1.900000         CONSTANT HEAD       1
     250       1     125     180       1.900000         CONSTANT HEAD       1
     251       1     126       1       1.900000         CONSTANT HEAD       1
     252       1     126     180       1.900000         CONSTANT HEAD       1
     253       1     127       1       1.900000         CONSTANT HEAD       1
     254       1     127     180       1.900000         CONSTANT HEAD       1
     255       1     128       1       1.900000         CONSTANT HEAD       1
     256       1     128     180       1.900000         CONSTANT HEAD       1
     257       1     129       1       1.900000         CONSTANT HEAD       1
     258       1     129     180       1.900000         CONSTANT HEAD       1
     259       1     130       1       1.900000         CONSTANT HEAD       1
     260       1     130     180       1.900000         CONSTANT HEAD       1
     261       1     131       1       1.900000         CONSTANT HEAD       1
     262       1     131     180       1.900000         CONSTANT HEAD       1
     263       1     132       1       1.900000         CONSTANT HEAD       1
     264       1     132     180       1.900000         CONSTANT HEAD       1
     265       1     133       1       1.900000         CONSTANT HEAD       1
     266       1     133     180       1.900000         CONSTANT HEAD       1
     267       1     134       1       1.900000         CONSTANT HEAD       1
     268       1     134     180       1.900000         CONSTANT HEAD       1
     269       1     135       1       1.900000         CONSTANT HEAD       1
     270       1     135     180       1.900000         CONSTANT HEAD       1
     271       1     136       1       1.900000         CONSTANT HEAD       1
     272       1     136     180       1.900000         CONSTANT HEAD       1
     273       1     137       1       1.900000         CONSTANT HEAD       1
     274       1     137     180       1.900000         CONSTANT HEAD       1
     275       1     138       1       1.900000         CONSTANT HEAD       1
     276       1     138     180       1.900000         CONSTANT HEAD       1
     277       1     139       1       1.900000         CONSTANT HEAD       1
     278       1     139     180       1.900000         CONSTANT HEAD       1
     279       1     140       1       1.900000         CONSTANT HEAD       1
     280       1     140     180       1.900000         CONSTANT HEAD       1
     281       1     141       1       1.900000         CONSTANT HEAD       1
     282       1     141     180       1.900000         CONSTANT HEAD       1
     283       1     142       1       1.900000         CONSTANT HEAD       1
     284       1     142     180       1.900000         CONSTANT HEAD       1
     285       1     143       1       1.900000         CONSTANT HEAD       1
     286       1     143     180       1.900000         CONSTANT HEAD       1
     287       1     144       1       1.900000         CONSTANT HEAD       1
     288       1     144     180       1.900000         CONSTANT HEAD       1
     289       1     145       1       1.900000         CONSTANT HEAD       1
     290       1     145     180       1.900000         CONSTANT HEAD       1
     291       1     146       1       1.900000         CONSTANT HEAD       1
     292       1     146     180       1.900000         CONSTANT HEAD       1
     293       1     147       1       1.900000         CONSTANT HEAD       1
     294       1     147     180       1.900000         CONSTANT HEAD       1
     295       1     148       1       1.900000         CONSTANT HEAD       1
     296       1     148     180       1.900000         CONSTANT HEAD       1
     297       1     149       1       1.900000         CONSTANT HEAD       1
     298       1     149     180       1.900000         CONSTANT HEAD       1
     299       1     150       1       1.900000         CONSTANT HEAD       1
     300       1     150     180       1.900000         CONSTANT HEAD       1
     301       1     151       1       1.900000         CONSTANT HEAD       1
     302       1     151     180       1.900000         CONSTANT HEAD       1
     303       1     152       1       1.900000         CONSTANT HEAD       1
     304       1     152     180       1.900000         CONSTANT HEAD       1
     305       1     153       1       1.900000         CONSTANT HEAD       1
     306       1     153     180       1.900000         CONSTANT HEAD       1
     307       1     154       1       1.900000         CONSTANT HEAD       1
     308       1     154     180       1.900000         CONSTANT HEAD       1
     309       1     155       1       1.900000         CONSTANT HEAD       1
     310       1     155     180       1.900000         CONSTANT HEAD       1
     311       1     156       1       1.900000         CONSTANT HEAD       1
     312       1     156     180       1.900000         CONSTANT HEAD       1
     313       1     157       1       1.900000         CONSTANT HEAD       1
     314       1     157     180       1.900000         CONSTANT HEAD       1
     315       1     158       1       1.900000         CONSTANT HEAD       1
     316       1     158     180       1.900000         CONSTANT HEAD       1
     317       1     159       1       1.900000         CONSTANT HEAD       1
     318       1     159     180       1.900000         CONSTANT HEAD       1
     319       1     160       1       1.900000         CONSTANT HEAD       1
     320       1     160     180       1.900000         CONSTANT HEAD       1
     321       1     161       1       1.900000         CONSTANT HEAD       1
     322       1     161     180       1.900000         CONSTANT HEAD       1
     323       1     162       1       1.900000         CONSTANT HEAD       1
     324       1     162     180       1.900000         CONSTANT HEAD       1
     325       1     163       1       1.900000         CONSTANT HEAD       1
     326       1     163     180       1.900000         CONSTANT HEAD       1
     327       1     164       1       1.900000         CONSTANT HEAD       1
     328       1     164     180       1.900000         CONSTANT HEAD       1
     329       1     165       1       1.900000         CONSTANT HEAD       1
     330       1     165     180       1.900000         CONSTANT HEAD       1
     331       1     166       1       1.900000         CONSTANT HEAD       1
     332       1     166     180       1.900000         CONSTANT HEAD       1
     333       1     167       1       1.900000         CONSTANT HEAD       1
     334       1     167     180       1.900000         CONSTANT HEAD       1
     335       1     168       1       1.900000         CONSTANT HEAD       1
     336       1     168     180       1.900000         CONSTANT HEAD       1
     337       1     169       1       1.900000         CONSTANT HEAD       1
     338       1     169     180       1.900000         CONSTANT HEAD       1
     339       1     170       1       1.900000         CONSTANT HEAD       1
     340       1     170     180       1.900000         CONSTANT HEAD       1
     341       1     171       1       1.900000         CONSTANT HEAD       1
     342       1     171     180       1.900000         CONSTANT HEAD       1
     343       1     172       1       1.900000         CONSTANT HEAD       1
     344       1     172     180       1.900000         CONSTANT HEAD       1
     345       1     173       1       1.900000         CONSTANT HEAD       1
     346       1     173     180       1.900000         CONSTANT HEAD       1
     347       1     174       1       1.900000         CONSTANT HEAD       1
     348       1     174     180       1.900000         CONSTANT HEAD       1
     349       1     175       1       1.900000         CONSTANT HEAD       1
     350       1     175     180       1.900000         CONSTANT HEAD       1
     351       1     176       1       1.900000         CONSTANT HEAD       1
     352       1     176     180       1.900000         CONSTANT HEAD       1
     353       1     177       1       1.900000         CONSTANT HEAD       1
     354       1     177     180       1.900000         CONSTANT HEAD       1
     355       1     178       1       1.900000         CONSTANT HEAD       1
     356       1     178     180       1.900000         CONSTANT HEAD       1
     357       1     179       1       1.900000         CONSTANT HEAD       1
     358       1     179     180       1.900000         CONSTANT HEAD       1
     359       1     180       1       1.900000         CONSTANT HEAD       1
     360       1     180     180       1.900000         CONSTANT HEAD       1
     361       1      91      91      0.1500000         WELL                1


                                          ================================================
                                                         TIME STEP NO.  001
                                          ================================================

 FROM TIME =   300.00     TO    330.00    


                    "THKSAT          " FLOW TERMS FOR TIME STEP  1, STRESS PERIOD 11 READ UNFORMATTED ON UNIT 10
                    --------------------------------------------------------------------------------------------

                    "QXX             " FLOW TERMS FOR TIME STEP  1, STRESS PERIOD 11 READ UNFORMATTED ON UNIT 10
                    --------------------------------------------------------------------------------------------

                    "QYY             " FLOW TERMS FOR TIME STEP  1, STRESS PERIOD 11 READ UNFORMATTED ON UNIT 10
                    --------------------------------------------------------------------------------------------

                    "STO             " FLOW TERMS FOR TIME STEP  1, STRESS PERIOD 11 READ UNFORMATTED ON UNIT 10
                    --------------------------------------------------------------------------------------------

 MAXIMUM STEPSIZE DURING WHICH ANY PARTICLE CANNOT MOVE MORE THAN ONE CELL
 =  1.155    (WHEN MIN. R.F.=1)  AT K=   1, I=  91, J=  92

 MAXIMUM STEPSIZE WHICH MEETS STABILITY CRITERION OF THE ADVECTION TERM
 (FOR PURE FINITE-DIFFERENCE OPTION, MIXELM=0) 
 = 0.4203    (WHEN MIN. R.F.=1)  AT K=   1, I=  91, J=  91

                    "CNH             " FLOW TERMS FOR TIME STEP  1, STRESS PERIOD 11 READ UNFORMATTED ON UNIT 10
                    --------------------------------------------------------------------------------------------

                    "WEL             " FLOW TERMS FOR TIME STEP  1, STRESS PERIOD 11 READ UNFORMATTED ON UNIT 10
                    --------------------------------------------------------------------------------------------


 TOTAL NUMBER OF POINT SOURCES/SINKS PRESENT IN THE FLOW MODEL =   361

 MAXIMUM STEPSIZE WHICH MEETS STABILITY CRITERION OF THE SINK & SOURCE TERM
 = 0.5620E+05(WHEN MIN. R.F.=1)  AT K=   1, I=   1, J= 180

 MAXIMUM STEPSIZE WHICH MEETS STABILITY CRITERION OF THE DISPERSION TERM
 = 0.2102    (WHEN MIN. R.F.=1)  AT K=   1, I=  91, J=  91


     1 CALLS TO GCG PACKAGE FOR TRANSPORT TIME STEP     1 IN FLOW TIME STEP     1 STRESS PERIOD    11
      7 TOTAL ITERATIONS
  MAXIMUM CONCENTRATION CHANGES FOR EACH ITERATION:
  MAX. CHANGE LAYER,ROW,COL MAX. CHANGE LAYER,ROW,COL MAX. CHANGE LAYER,ROW,COL MAX. CHANGE LAYER,ROW,COL MAX. CHANGE LAYER,ROW,COL
 ------------------------------------------------------------------------------------------------------------------------------------
   0.1235     (  1, 90, 93)  0.5817E-02 (  1, 91, 91)  0.4849E-02 (  1, 91, 91)  0.3253E-02 (  1, 91, 91)  0.9027E-03 (  1, 92, 91)
   0.6956E-04 (  1, 93, 90)  0.2474E-05 (  1, 91, 92)



 >>>>>>>>>>>>>>>>>>>>>>>>>>>>>>>>>>>>>>>>>>>>>>>>>>>>>>>FOR COMPONENT NO. 01<<<<<<<<<<<<<<<<<<<<<<<<<<<<<<<<<<<<<<<<<<<<<<<<<<<<<<<


                                            -------------------------------------------
                                                      TRANSPORT STEP NO.    1
                                            -------------------------------------------

 TOTAL ELAPSED TIME SINCE BEGINNING OF SIMULATION =   330.0000    D   
 .....................................................................

                     CUMULATIVE MASS BUDGETS AT END OF TRANSPORT STEP    1, TIME STEP    1, STRESS PERIOD   11
                     -----------------------------------------------------------------------------------------

                                                             IN                           OUT
                                                      ----------------             ----------------
                               CONSTANT CONCENTRATION:    0.000000                    0.000000    
                                        CONSTANT HEAD:    2659400.                   -2733446.    
                                                WELLS:    52743.33                   -101604.6    
                               MASS STOR (FLOW MODEL):    2485130.                   -2696490.    
                                MASS STORAGE (SOLUTE):    611728.8                   -277149.8    
                            ---------------------------------------------------------------------------
                                              [TOTAL]:    5809003.     KG            -5808690.     KG  

                                                          NET (IN - OUT):    313.0000    
                                                   DISCREPANCY (PERCENT):   0.5388333E-02


                                   ++++++++++++++++++++++++++++++++++++++++++++++++++++++++++++++
                                                       STRESS PERIOD NO.  012
                                   ++++++++++++++++++++++++++++++++++++++++++++++++++++++++++++++


 LENGTH OF CURRENT STRESS PERIOD =   30.00000    
 NUMBER OF TIME STEPS FOR CURRENT STRESS PERIOD =    1
 TIME STEP MULTIPLIER USED IN FLOW SOLUTION =   1.000000    

 ***Type of Transport Simulation is TRANSIENT

 USER-SPECIFIED TRANSPORT STEPSIZE =   30.00000    D   
 MAXIMUM NUMBER OF TRANSPORT STEPS ALLOWED  IN ONE FLOW TIME STEP =     50000
 MULTIPLIER FOR SUCCESSIVE TRANSPORT STEPS  [USED IN IMPLICIT SCHEMES] =     1.000
 MAXIMUM TRANSPORT STEP SIZE  [USED IN IMPLICIT SCHEMES] =   0.000000    D   

       NO    LAYER   ROW   COLUMN   CONCENTRATION       TYPE            COMPONENT
       1       1       1       1       1.900000         CONSTANT HEAD       1
       2       1       1     180       1.900000         CONSTANT HEAD       1
       3       1       2       1       1.900000         CONSTANT HEAD       1
       4       1       2     180       1.900000         CONSTANT HEAD       1
       5       1       3       1       1.900000         CONSTANT HEAD       1
       6       1       3     180       1.900000         CONSTANT HEAD       1
       7       1       4       1       1.900000         CONSTANT HEAD       1
       8       1       4     180       1.900000         CONSTANT HEAD       1
       9       1       5       1       1.900000         CONSTANT HEAD       1
      10       1       5     180       1.900000         CONSTANT HEAD       1
      11       1       6       1       1.900000         CONSTANT HEAD       1
      12       1       6     180       1.900000         CONSTANT HEAD       1
      13       1       7       1       1.900000         CONSTANT HEAD       1
      14       1       7     180       1.900000         CONSTANT HEAD       1
      15       1       8       1       1.900000         CONSTANT HEAD       1
      16       1       8     180       1.900000         CONSTANT HEAD       1
      17       1       9       1       1.900000         CONSTANT HEAD       1
      18       1       9     180       1.900000         CONSTANT HEAD       1
      19       1      10       1       1.900000         CONSTANT HEAD       1
      20       1      10     180       1.900000         CONSTANT HEAD       1
      21       1      11       1       1.900000         CONSTANT HEAD       1
      22       1      11     180       1.900000         CONSTANT HEAD       1
      23       1      12       1       1.900000         CONSTANT HEAD       1
      24       1      12     180       1.900000         CONSTANT HEAD       1
      25       1      13       1       1.900000         CONSTANT HEAD       1
      26       1      13     180       1.900000         CONSTANT HEAD       1
      27       1      14       1       1.900000         CONSTANT HEAD       1
      28       1      14     180       1.900000         CONSTANT HEAD       1
      29       1      15       1       1.900000         CONSTANT HEAD       1
      30       1      15     180       1.900000         CONSTANT HEAD       1
      31       1      16       1       1.900000         CONSTANT HEAD       1
      32       1      16     180       1.900000         CONSTANT HEAD       1
      33       1      17       1       1.900000         CONSTANT HEAD       1
      34       1      17     180       1.900000         CONSTANT HEAD       1
      35       1      18       1       1.900000         CONSTANT HEAD       1
      36       1      18     180       1.900000         CONSTANT HEAD       1
      37       1      19       1       1.900000         CONSTANT HEAD       1
      38       1      19     180       1.900000         CONSTANT HEAD       1
      39       1      20       1       1.900000         CONSTANT HEAD       1
      40       1      20     180       1.900000         CONSTANT HEAD       1
      41       1      21       1       1.900000         CONSTANT HEAD       1
      42       1      21     180       1.900000         CONSTANT HEAD       1
      43       1      22       1       1.900000         CONSTANT HEAD       1
      44       1      22     180       1.900000         CONSTANT HEAD       1
      45       1      23       1       1.900000         CONSTANT HEAD       1
      46       1      23     180       1.900000         CONSTANT HEAD       1
      47       1      24       1       1.900000         CONSTANT HEAD       1
      48       1      24     180       1.900000         CONSTANT HEAD       1
      49       1      25       1       1.900000         CONSTANT HEAD       1
      50       1      25     180       1.900000         CONSTANT HEAD       1
      51       1      26       1       1.900000         CONSTANT HEAD       1
      52       1      26     180       1.900000         CONSTANT HEAD       1
      53       1      27       1       1.900000         CONSTANT HEAD       1
      54       1      27     180       1.900000         CONSTANT HEAD       1
      55       1      28       1       1.900000         CONSTANT HEAD       1
      56       1      28     180       1.900000         CONSTANT HEAD       1
      57       1      29       1       1.900000         CONSTANT HEAD       1
      58       1      29     180       1.900000         CONSTANT HEAD       1
      59       1      30       1       1.900000         CONSTANT HEAD       1
      60       1      30     180       1.900000         CONSTANT HEAD       1
      61       1      31       1       1.900000         CONSTANT HEAD       1
      62       1      31     180       1.900000         CONSTANT HEAD       1
      63       1      32       1       1.900000         CONSTANT HEAD       1
      64       1      32     180       1.900000         CONSTANT HEAD       1
      65       1      33       1       1.900000         CONSTANT HEAD       1
      66       1      33     180       1.900000         CONSTANT HEAD       1
      67       1      34       1       1.900000         CONSTANT HEAD       1
      68       1      34     180       1.900000         CONSTANT HEAD       1
      69       1      35       1       1.900000         CONSTANT HEAD       1
      70       1      35     180       1.900000         CONSTANT HEAD       1
      71       1      36       1       1.900000         CONSTANT HEAD       1
      72       1      36     180       1.900000         CONSTANT HEAD       1
      73       1      37       1       1.900000         CONSTANT HEAD       1
      74       1      37     180       1.900000         CONSTANT HEAD       1
      75       1      38       1       1.900000         CONSTANT HEAD       1
      76       1      38     180       1.900000         CONSTANT HEAD       1
      77       1      39       1       1.900000         CONSTANT HEAD       1
      78       1      39     180       1.900000         CONSTANT HEAD       1
      79       1      40       1       1.900000         CONSTANT HEAD       1
      80       1      40     180       1.900000         CONSTANT HEAD       1
      81       1      41       1       1.900000         CONSTANT HEAD       1
      82       1      41     180       1.900000         CONSTANT HEAD       1
      83       1      42       1       1.900000         CONSTANT HEAD       1
      84       1      42     180       1.900000         CONSTANT HEAD       1
      85       1      43       1       1.900000         CONSTANT HEAD       1
      86       1      43     180       1.900000         CONSTANT HEAD       1
      87       1      44       1       1.900000         CONSTANT HEAD       1
      88       1      44     180       1.900000         CONSTANT HEAD       1
      89       1      45       1       1.900000         CONSTANT HEAD       1
      90       1      45     180       1.900000         CONSTANT HEAD       1
      91       1      46       1       1.900000         CONSTANT HEAD       1
      92       1      46     180       1.900000         CONSTANT HEAD       1
      93       1      47       1       1.900000         CONSTANT HEAD       1
      94       1      47     180       1.900000         CONSTANT HEAD       1
      95       1      48       1       1.900000         CONSTANT HEAD       1
      96       1      48     180       1.900000         CONSTANT HEAD       1
      97       1      49       1       1.900000         CONSTANT HEAD       1
      98       1      49     180       1.900000         CONSTANT HEAD       1
      99       1      50       1       1.900000         CONSTANT HEAD       1
     100       1      50     180       1.900000         CONSTANT HEAD       1
     101       1      51       1       1.900000         CONSTANT HEAD       1
     102       1      51     180       1.900000         CONSTANT HEAD       1
     103       1      52       1       1.900000         CONSTANT HEAD       1
     104       1      52     180       1.900000         CONSTANT HEAD       1
     105       1      53       1       1.900000         CONSTANT HEAD       1
     106       1      53     180       1.900000         CONSTANT HEAD       1
     107       1      54       1       1.900000         CONSTANT HEAD       1
     108       1      54     180       1.900000         CONSTANT HEAD       1
     109       1      55       1       1.900000         CONSTANT HEAD       1
     110       1      55     180       1.900000         CONSTANT HEAD       1
     111       1      56       1       1.900000         CONSTANT HEAD       1
     112       1      56     180       1.900000         CONSTANT HEAD       1
     113       1      57       1       1.900000         CONSTANT HEAD       1
     114       1      57     180       1.900000         CONSTANT HEAD       1
     115       1      58       1       1.900000         CONSTANT HEAD       1
     116       1      58     180       1.900000         CONSTANT HEAD       1
     117       1      59       1       1.900000         CONSTANT HEAD       1
     118       1      59     180       1.900000         CONSTANT HEAD       1
     119       1      60       1       1.900000         CONSTANT HEAD       1
     120       1      60     180       1.900000         CONSTANT HEAD       1
     121       1      61       1       1.900000         CONSTANT HEAD       1
     122       1      61     180       1.900000         CONSTANT HEAD       1
     123       1      62       1       1.900000         CONSTANT HEAD       1
     124       1      62     180       1.900000         CONSTANT HEAD       1
     125       1      63       1       1.900000         CONSTANT HEAD       1
     126       1      63     180       1.900000         CONSTANT HEAD       1
     127       1      64       1       1.900000         CONSTANT HEAD       1
     128       1      64     180       1.900000         CONSTANT HEAD       1
     129       1      65       1       1.900000         CONSTANT HEAD       1
     130       1      65     180       1.900000         CONSTANT HEAD       1
     131       1      66       1       1.900000         CONSTANT HEAD       1
     132       1      66     180       1.900000         CONSTANT HEAD       1
     133       1      67       1       1.900000         CONSTANT HEAD       1
     134       1      67     180       1.900000         CONSTANT HEAD       1
     135       1      68       1       1.900000         CONSTANT HEAD       1
     136       1      68     180       1.900000         CONSTANT HEAD       1
     137       1      69       1       1.900000         CONSTANT HEAD       1
     138       1      69     180       1.900000         CONSTANT HEAD       1
     139       1      70       1       1.900000         CONSTANT HEAD       1
     140       1      70     180       1.900000         CONSTANT HEAD       1
     141       1      71       1       1.900000         CONSTANT HEAD       1
     142       1      71     180       1.900000         CONSTANT HEAD       1
     143       1      72       1       1.900000         CONSTANT HEAD       1
     144       1      72     180       1.900000         CONSTANT HEAD       1
     145       1      73       1       1.900000         CONSTANT HEAD       1
     146       1      73     180       1.900000         CONSTANT HEAD       1
     147       1      74       1       1.900000         CONSTANT HEAD       1
     148       1      74     180       1.900000         CONSTANT HEAD       1
     149       1      75       1       1.900000         CONSTANT HEAD       1
     150       1      75     180       1.900000         CONSTANT HEAD       1
     151       1      76       1       1.900000         CONSTANT HEAD       1
     152       1      76     180       1.900000         CONSTANT HEAD       1
     153       1      77       1       1.900000         CONSTANT HEAD       1
     154       1      77     180       1.900000         CONSTANT HEAD       1
     155       1      78       1       1.900000         CONSTANT HEAD       1
     156       1      78     180       1.900000         CONSTANT HEAD       1
     157       1      79       1       1.900000         CONSTANT HEAD       1
     158       1      79     180       1.900000         CONSTANT HEAD       1
     159       1      80       1       1.900000         CONSTANT HEAD       1
     160       1      80     180       1.900000         CONSTANT HEAD       1
     161       1      81       1       1.900000         CONSTANT HEAD       1
     162       1      81     180       1.900000         CONSTANT HEAD       1
     163       1      82       1       1.900000         CONSTANT HEAD       1
     164       1      82     180       1.900000         CONSTANT HEAD       1
     165       1      83       1       1.900000         CONSTANT HEAD       1
     166       1      83     180       1.900000         CONSTANT HEAD       1
     167       1      84       1       1.900000         CONSTANT HEAD       1
     168       1      84     180       1.900000         CONSTANT HEAD       1
     169       1      85       1       1.900000         CONSTANT HEAD       1
     170       1      85     180       1.900000         CONSTANT HEAD       1
     171       1      86       1       1.900000         CONSTANT HEAD       1
     172       1      86     180       1.900000         CONSTANT HEAD       1
     173       1      87       1       1.900000         CONSTANT HEAD       1
     174       1      87     180       1.900000         CONSTANT HEAD       1
     175       1      88       1       1.900000         CONSTANT HEAD       1
     176       1      88     180       1.900000         CONSTANT HEAD       1
     177       1      89       1       1.900000         CONSTANT HEAD       1
     178       1      89     180       1.900000         CONSTANT HEAD       1
     179       1      90       1       1.900000         CONSTANT HEAD       1
     180       1      90     180       1.900000         CONSTANT HEAD       1
     181       1      91       1       1.900000         CONSTANT HEAD       1
     182       1      91     180       1.900000         CONSTANT HEAD       1
     183       1      92       1       1.900000         CONSTANT HEAD       1
     184       1      92     180       1.900000         CONSTANT HEAD       1
     185       1      93       1       1.900000         CONSTANT HEAD       1
     186       1      93     180       1.900000         CONSTANT HEAD       1
     187       1      94       1       1.900000         CONSTANT HEAD       1
     188       1      94     180       1.900000         CONSTANT HEAD       1
     189       1      95       1       1.900000         CONSTANT HEAD       1
     190       1      95     180       1.900000         CONSTANT HEAD       1
     191       1      96       1       1.900000         CONSTANT HEAD       1
     192       1      96     180       1.900000         CONSTANT HEAD       1
     193       1      97       1       1.900000         CONSTANT HEAD       1
     194       1      97     180       1.900000         CONSTANT HEAD       1
     195       1      98       1       1.900000         CONSTANT HEAD       1
     196       1      98     180       1.900000         CONSTANT HEAD       1
     197       1      99       1       1.900000         CONSTANT HEAD       1
     198       1      99     180       1.900000         CONSTANT HEAD       1
     199       1     100       1       1.900000         CONSTANT HEAD       1
     200       1     100     180       1.900000         CONSTANT HEAD       1
     201       1     101       1       1.900000         CONSTANT HEAD       1
     202       1     101     180       1.900000         CONSTANT HEAD       1
     203       1     102       1       1.900000         CONSTANT HEAD       1
     204       1     102     180       1.900000         CONSTANT HEAD       1
     205       1     103       1       1.900000         CONSTANT HEAD       1
     206       1     103     180       1.900000         CONSTANT HEAD       1
     207       1     104       1       1.900000         CONSTANT HEAD       1
     208       1     104     180       1.900000         CONSTANT HEAD       1
     209       1     105       1       1.900000         CONSTANT HEAD       1
     210       1     105     180       1.900000         CONSTANT HEAD       1
     211       1     106       1       1.900000         CONSTANT HEAD       1
     212       1     106     180       1.900000         CONSTANT HEAD       1
     213       1     107       1       1.900000         CONSTANT HEAD       1
     214       1     107     180       1.900000         CONSTANT HEAD       1
     215       1     108       1       1.900000         CONSTANT HEAD       1
     216       1     108     180       1.900000         CONSTANT HEAD       1
     217       1     109       1       1.900000         CONSTANT HEAD       1
     218       1     109     180       1.900000         CONSTANT HEAD       1
     219       1     110       1       1.900000         CONSTANT HEAD       1
     220       1     110     180       1.900000         CONSTANT HEAD       1
     221       1     111       1       1.900000         CONSTANT HEAD       1
     222       1     111     180       1.900000         CONSTANT HEAD       1
     223       1     112       1       1.900000         CONSTANT HEAD       1
     224       1     112     180       1.900000         CONSTANT HEAD       1
     225       1     113       1       1.900000         CONSTANT HEAD       1
     226       1     113     180       1.900000         CONSTANT HEAD       1
     227       1     114       1       1.900000         CONSTANT HEAD       1
     228       1     114     180       1.900000         CONSTANT HEAD       1
     229       1     115       1       1.900000         CONSTANT HEAD       1
     230       1     115     180       1.900000         CONSTANT HEAD       1
     231       1     116       1       1.900000         CONSTANT HEAD       1
     232       1     116     180       1.900000         CONSTANT HEAD       1
     233       1     117       1       1.900000         CONSTANT HEAD       1
     234       1     117     180       1.900000         CONSTANT HEAD       1
     235       1     118       1       1.900000         CONSTANT HEAD       1
     236       1     118     180       1.900000         CONSTANT HEAD       1
     237       1     119       1       1.900000         CONSTANT HEAD       1
     238       1     119     180       1.900000         CONSTANT HEAD       1
     239       1     120       1       1.900000         CONSTANT HEAD       1
     240       1     120     180       1.900000         CONSTANT HEAD       1
     241       1     121       1       1.900000         CONSTANT HEAD       1
     242       1     121     180       1.900000         CONSTANT HEAD       1
     243       1     122       1       1.900000         CONSTANT HEAD       1
     244       1     122     180       1.900000         CONSTANT HEAD       1
     245       1     123       1       1.900000         CONSTANT HEAD       1
     246       1     123     180       1.900000         CONSTANT HEAD       1
     247       1     124       1       1.900000         CONSTANT HEAD       1
     248       1     124     180       1.900000         CONSTANT HEAD       1
     249       1     125       1       1.900000         CONSTANT HEAD       1
     250       1     125     180       1.900000         CONSTANT HEAD       1
     251       1     126       1       1.900000         CONSTANT HEAD       1
     252       1     126     180       1.900000         CONSTANT HEAD       1
     253       1     127       1       1.900000         CONSTANT HEAD       1
     254       1     127     180       1.900000         CONSTANT HEAD       1
     255       1     128       1       1.900000         CONSTANT HEAD       1
     256       1     128     180       1.900000         CONSTANT HEAD       1
     257       1     129       1       1.900000         CONSTANT HEAD       1
     258       1     129     180       1.900000         CONSTANT HEAD       1
     259       1     130       1       1.900000         CONSTANT HEAD       1
     260       1     130     180       1.900000         CONSTANT HEAD       1
     261       1     131       1       1.900000         CONSTANT HEAD       1
     262       1     131     180       1.900000         CONSTANT HEAD       1
     263       1     132       1       1.900000         CONSTANT HEAD       1
     264       1     132     180       1.900000         CONSTANT HEAD       1
     265       1     133       1       1.900000         CONSTANT HEAD       1
     266       1     133     180       1.900000         CONSTANT HEAD       1
     267       1     134       1       1.900000         CONSTANT HEAD       1
     268       1     134     180       1.900000         CONSTANT HEAD       1
     269       1     135       1       1.900000         CONSTANT HEAD       1
     270       1     135     180       1.900000         CONSTANT HEAD       1
     271       1     136       1       1.900000         CONSTANT HEAD       1
     272       1     136     180       1.900000         CONSTANT HEAD       1
     273       1     137       1       1.900000         CONSTANT HEAD       1
     274       1     137     180       1.900000         CONSTANT HEAD       1
     275       1     138       1       1.900000         CONSTANT HEAD       1
     276       1     138     180       1.900000         CONSTANT HEAD       1
     277       1     139       1       1.900000         CONSTANT HEAD       1
     278       1     139     180       1.900000         CONSTANT HEAD       1
     279       1     140       1       1.900000         CONSTANT HEAD       1
     280       1     140     180       1.900000         CONSTANT HEAD       1
     281       1     141       1       1.900000         CONSTANT HEAD       1
     282       1     141     180       1.900000         CONSTANT HEAD       1
     283       1     142       1       1.900000         CONSTANT HEAD       1
     284       1     142     180       1.900000         CONSTANT HEAD       1
     285       1     143       1       1.900000         CONSTANT HEAD       1
     286       1     143     180       1.900000         CONSTANT HEAD       1
     287       1     144       1       1.900000         CONSTANT HEAD       1
     288       1     144     180       1.900000         CONSTANT HEAD       1
     289       1     145       1       1.900000         CONSTANT HEAD       1
     290       1     145     180       1.900000         CONSTANT HEAD       1
     291       1     146       1       1.900000         CONSTANT HEAD       1
     292       1     146     180       1.900000         CONSTANT HEAD       1
     293       1     147       1       1.900000         CONSTANT HEAD       1
     294       1     147     180       1.900000         CONSTANT HEAD       1
     295       1     148       1       1.900000         CONSTANT HEAD       1
     296       1     148     180       1.900000         CONSTANT HEAD       1
     297       1     149       1       1.900000         CONSTANT HEAD       1
     298       1     149     180       1.900000         CONSTANT HEAD       1
     299       1     150       1       1.900000         CONSTANT HEAD       1
     300       1     150     180       1.900000         CONSTANT HEAD       1
     301       1     151       1       1.900000         CONSTANT HEAD       1
     302       1     151     180       1.900000         CONSTANT HEAD       1
     303       1     152       1       1.900000         CONSTANT HEAD       1
     304       1     152     180       1.900000         CONSTANT HEAD       1
     305       1     153       1       1.900000         CONSTANT HEAD       1
     306       1     153     180       1.900000         CONSTANT HEAD       1
     307       1     154       1       1.900000         CONSTANT HEAD       1
     308       1     154     180       1.900000         CONSTANT HEAD       1
     309       1     155       1       1.900000         CONSTANT HEAD       1
     310       1     155     180       1.900000         CONSTANT HEAD       1
     311       1     156       1       1.900000         CONSTANT HEAD       1
     312       1     156     180       1.900000         CONSTANT HEAD       1
     313       1     157       1       1.900000         CONSTANT HEAD       1
     314       1     157     180       1.900000         CONSTANT HEAD       1
     315       1     158       1       1.900000         CONSTANT HEAD       1
     316       1     158     180       1.900000         CONSTANT HEAD       1
     317       1     159       1       1.900000         CONSTANT HEAD       1
     318       1     159     180       1.900000         CONSTANT HEAD       1
     319       1     160       1       1.900000         CONSTANT HEAD       1
     320       1     160     180       1.900000         CONSTANT HEAD       1
     321       1     161       1       1.900000         CONSTANT HEAD       1
     322       1     161     180       1.900000         CONSTANT HEAD       1
     323       1     162       1       1.900000         CONSTANT HEAD       1
     324       1     162     180       1.900000         CONSTANT HEAD       1
     325       1     163       1       1.900000         CONSTANT HEAD       1
     326       1     163     180       1.900000         CONSTANT HEAD       1
     327       1     164       1       1.900000         CONSTANT HEAD       1
     328       1     164     180       1.900000         CONSTANT HEAD       1
     329       1     165       1       1.900000         CONSTANT HEAD       1
     330       1     165     180       1.900000         CONSTANT HEAD       1
     331       1     166       1       1.900000         CONSTANT HEAD       1
     332       1     166     180       1.900000         CONSTANT HEAD       1
     333       1     167       1       1.900000         CONSTANT HEAD       1
     334       1     167     180       1.900000         CONSTANT HEAD       1
     335       1     168       1       1.900000         CONSTANT HEAD       1
     336       1     168     180       1.900000         CONSTANT HEAD       1
     337       1     169       1       1.900000         CONSTANT HEAD       1
     338       1     169     180       1.900000         CONSTANT HEAD       1
     339       1     170       1       1.900000         CONSTANT HEAD       1
     340       1     170     180       1.900000         CONSTANT HEAD       1
     341       1     171       1       1.900000         CONSTANT HEAD       1
     342       1     171     180       1.900000         CONSTANT HEAD       1
     343       1     172       1       1.900000         CONSTANT HEAD       1
     344       1     172     180       1.900000         CONSTANT HEAD       1
     345       1     173       1       1.900000         CONSTANT HEAD       1
     346       1     173     180       1.900000         CONSTANT HEAD       1
     347       1     174       1       1.900000         CONSTANT HEAD       1
     348       1     174     180       1.900000         CONSTANT HEAD       1
     349       1     175       1       1.900000         CONSTANT HEAD       1
     350       1     175     180       1.900000         CONSTANT HEAD       1
     351       1     176       1       1.900000         CONSTANT HEAD       1
     352       1     176     180       1.900000         CONSTANT HEAD       1
     353       1     177       1       1.900000         CONSTANT HEAD       1
     354       1     177     180       1.900000         CONSTANT HEAD       1
     355       1     178       1       1.900000         CONSTANT HEAD       1
     356       1     178     180       1.900000         CONSTANT HEAD       1
     357       1     179       1       1.900000         CONSTANT HEAD       1
     358       1     179     180       1.900000         CONSTANT HEAD       1
     359       1     180       1       1.900000         CONSTANT HEAD       1
     360       1     180     180       1.900000         CONSTANT HEAD       1
     361       1      91      91      0.1500000         WELL                1


                                          ================================================
                                                         TIME STEP NO.  001
                                          ================================================

 FROM TIME =   330.00     TO    360.00    


                    "THKSAT          " FLOW TERMS FOR TIME STEP  1, STRESS PERIOD 12 READ UNFORMATTED ON UNIT 10
                    --------------------------------------------------------------------------------------------

                    "QXX             " FLOW TERMS FOR TIME STEP  1, STRESS PERIOD 12 READ UNFORMATTED ON UNIT 10
                    --------------------------------------------------------------------------------------------

                    "QYY             " FLOW TERMS FOR TIME STEP  1, STRESS PERIOD 12 READ UNFORMATTED ON UNIT 10
                    --------------------------------------------------------------------------------------------

                    "STO             " FLOW TERMS FOR TIME STEP  1, STRESS PERIOD 12 READ UNFORMATTED ON UNIT 10
                    --------------------------------------------------------------------------------------------

 MAXIMUM STEPSIZE DURING WHICH ANY PARTICLE CANNOT MOVE MORE THAN ONE CELL
 =  1.759    (WHEN MIN. R.F.=1)  AT K=   1, I=  91, J=  90

 MAXIMUM STEPSIZE WHICH MEETS STABILITY CRITERION OF THE ADVECTION TERM
 (FOR PURE FINITE-DIFFERENCE OPTION, MIXELM=0) 
 = 0.6406    (WHEN MIN. R.F.=1)  AT K=   1, I=  91, J=  91

                    "CNH             " FLOW TERMS FOR TIME STEP  1, STRESS PERIOD 12 READ UNFORMATTED ON UNIT 10
                    --------------------------------------------------------------------------------------------

                    "WEL             " FLOW TERMS FOR TIME STEP  1, STRESS PERIOD 12 READ UNFORMATTED ON UNIT 10
                    --------------------------------------------------------------------------------------------


 TOTAL NUMBER OF POINT SOURCES/SINKS PRESENT IN THE FLOW MODEL =   361

 MAXIMUM STEPSIZE WHICH MEETS STABILITY CRITERION OF THE SINK & SOURCE TERM
 = 0.3207    (WHEN MIN. R.F.=1)  AT K=   1, I=  91, J=  91

 MAXIMUM STEPSIZE WHICH MEETS STABILITY CRITERION OF THE DISPERSION TERM
 = 0.3211    (WHEN MIN. R.F.=1)  AT K=   1, I=  91, J=  91


     1 CALLS TO GCG PACKAGE FOR TRANSPORT TIME STEP     1 IN FLOW TIME STEP     1 STRESS PERIOD    12
     10 TOTAL ITERATIONS
  MAXIMUM CONCENTRATION CHANGES FOR EACH ITERATION:
  MAX. CHANGE LAYER,ROW,COL MAX. CHANGE LAYER,ROW,COL MAX. CHANGE LAYER,ROW,COL MAX. CHANGE LAYER,ROW,COL MAX. CHANGE LAYER,ROW,COL
 ------------------------------------------------------------------------------------------------------------------------------------
   0.3222     (  1, 91, 91)  0.1448     (  1, 94, 90)  0.4975E-01 (  1, 95, 88)  0.1305E-01 (  1, 96, 89)  0.3317E-02 (  1, 97, 88)
   0.8075E-03 (  1, 98, 86)  0.1291E-03 (  1, 99, 85)  0.7832E-04 (  1, 99, 84)  0.1991E-04 (  1,100, 83)  0.3278E-05 (  1,102, 82)



 >>>>>>>>>>>>>>>>>>>>>>>>>>>>>>>>>>>>>>>>>>>>>>>>>>>>>>>FOR COMPONENT NO. 01<<<<<<<<<<<<<<<<<<<<<<<<<<<<<<<<<<<<<<<<<<<<<<<<<<<<<<<


                                            -------------------------------------------
                                                      TRANSPORT STEP NO.    1
                                            -------------------------------------------

 TOTAL ELAPSED TIME SINCE BEGINNING OF SIMULATION =   360.0000    D   
 .....................................................................

                     CUMULATIVE MASS BUDGETS AT END OF TRANSPORT STEP    1, TIME STEP    1, STRESS PERIOD   12
                     -----------------------------------------------------------------------------------------

                                                             IN                           OUT
                                                      ----------------             ----------------
                               CONSTANT CONCENTRATION:    0.000000                    0.000000    
                                        CONSTANT HEAD:    2809276.                   -2895698.    
                                                WELLS:    58216.50                   -101604.6    
                               MASS STOR (FLOW MODEL):    2560906.                   -2827199.    
                                MASS STORAGE (SOLUTE):    673682.2                   -277238.8    
                            ---------------------------------------------------------------------------
                                              [TOTAL]:    6102081.     KG            -6101741.     KG  

                                                          NET (IN - OUT):    340.0000    
                                                   DISCREPANCY (PERCENT):   0.5572025E-02


                                   ++++++++++++++++++++++++++++++++++++++++++++++++++++++++++++++
                                                       STRESS PERIOD NO.  013
                                   ++++++++++++++++++++++++++++++++++++++++++++++++++++++++++++++


 LENGTH OF CURRENT STRESS PERIOD =   30.00000    
 NUMBER OF TIME STEPS FOR CURRENT STRESS PERIOD =    1
 TIME STEP MULTIPLIER USED IN FLOW SOLUTION =   1.000000    

 ***Type of Transport Simulation is TRANSIENT

 USER-SPECIFIED TRANSPORT STEPSIZE =   30.00000    D   
 MAXIMUM NUMBER OF TRANSPORT STEPS ALLOWED  IN ONE FLOW TIME STEP =     50000
 MULTIPLIER FOR SUCCESSIVE TRANSPORT STEPS  [USED IN IMPLICIT SCHEMES] =     1.000
 MAXIMUM TRANSPORT STEP SIZE  [USED IN IMPLICIT SCHEMES] =   0.000000    D   

       NO    LAYER   ROW   COLUMN   CONCENTRATION       TYPE            COMPONENT
       1       1       1       1       1.900000         CONSTANT HEAD       1
       2       1       1     180       1.900000         CONSTANT HEAD       1
       3       1       2       1       1.900000         CONSTANT HEAD       1
       4       1       2     180       1.900000         CONSTANT HEAD       1
       5       1       3       1       1.900000         CONSTANT HEAD       1
       6       1       3     180       1.900000         CONSTANT HEAD       1
       7       1       4       1       1.900000         CONSTANT HEAD       1
       8       1       4     180       1.900000         CONSTANT HEAD       1
       9       1       5       1       1.900000         CONSTANT HEAD       1
      10       1       5     180       1.900000         CONSTANT HEAD       1
      11       1       6       1       1.900000         CONSTANT HEAD       1
      12       1       6     180       1.900000         CONSTANT HEAD       1
      13       1       7       1       1.900000         CONSTANT HEAD       1
      14       1       7     180       1.900000         CONSTANT HEAD       1
      15       1       8       1       1.900000         CONSTANT HEAD       1
      16       1       8     180       1.900000         CONSTANT HEAD       1
      17       1       9       1       1.900000         CONSTANT HEAD       1
      18       1       9     180       1.900000         CONSTANT HEAD       1
      19       1      10       1       1.900000         CONSTANT HEAD       1
      20       1      10     180       1.900000         CONSTANT HEAD       1
      21       1      11       1       1.900000         CONSTANT HEAD       1
      22       1      11     180       1.900000         CONSTANT HEAD       1
      23       1      12       1       1.900000         CONSTANT HEAD       1
      24       1      12     180       1.900000         CONSTANT HEAD       1
      25       1      13       1       1.900000         CONSTANT HEAD       1
      26       1      13     180       1.900000         CONSTANT HEAD       1
      27       1      14       1       1.900000         CONSTANT HEAD       1
      28       1      14     180       1.900000         CONSTANT HEAD       1
      29       1      15       1       1.900000         CONSTANT HEAD       1
      30       1      15     180       1.900000         CONSTANT HEAD       1
      31       1      16       1       1.900000         CONSTANT HEAD       1
      32       1      16     180       1.900000         CONSTANT HEAD       1
      33       1      17       1       1.900000         CONSTANT HEAD       1
      34       1      17     180       1.900000         CONSTANT HEAD       1
      35       1      18       1       1.900000         CONSTANT HEAD       1
      36       1      18     180       1.900000         CONSTANT HEAD       1
      37       1      19       1       1.900000         CONSTANT HEAD       1
      38       1      19     180       1.900000         CONSTANT HEAD       1
      39       1      20       1       1.900000         CONSTANT HEAD       1
      40       1      20     180       1.900000         CONSTANT HEAD       1
      41       1      21       1       1.900000         CONSTANT HEAD       1
      42       1      21     180       1.900000         CONSTANT HEAD       1
      43       1      22       1       1.900000         CONSTANT HEAD       1
      44       1      22     180       1.900000         CONSTANT HEAD       1
      45       1      23       1       1.900000         CONSTANT HEAD       1
      46       1      23     180       1.900000         CONSTANT HEAD       1
      47       1      24       1       1.900000         CONSTANT HEAD       1
      48       1      24     180       1.900000         CONSTANT HEAD       1
      49       1      25       1       1.900000         CONSTANT HEAD       1
      50       1      25     180       1.900000         CONSTANT HEAD       1
      51       1      26       1       1.900000         CONSTANT HEAD       1
      52       1      26     180       1.900000         CONSTANT HEAD       1
      53       1      27       1       1.900000         CONSTANT HEAD       1
      54       1      27     180       1.900000         CONSTANT HEAD       1
      55       1      28       1       1.900000         CONSTANT HEAD       1
      56       1      28     180       1.900000         CONSTANT HEAD       1
      57       1      29       1       1.900000         CONSTANT HEAD       1
      58       1      29     180       1.900000         CONSTANT HEAD       1
      59       1      30       1       1.900000         CONSTANT HEAD       1
      60       1      30     180       1.900000         CONSTANT HEAD       1
      61       1      31       1       1.900000         CONSTANT HEAD       1
      62       1      31     180       1.900000         CONSTANT HEAD       1
      63       1      32       1       1.900000         CONSTANT HEAD       1
      64       1      32     180       1.900000         CONSTANT HEAD       1
      65       1      33       1       1.900000         CONSTANT HEAD       1
      66       1      33     180       1.900000         CONSTANT HEAD       1
      67       1      34       1       1.900000         CONSTANT HEAD       1
      68       1      34     180       1.900000         CONSTANT HEAD       1
      69       1      35       1       1.900000         CONSTANT HEAD       1
      70       1      35     180       1.900000         CONSTANT HEAD       1
      71       1      36       1       1.900000         CONSTANT HEAD       1
      72       1      36     180       1.900000         CONSTANT HEAD       1
      73       1      37       1       1.900000         CONSTANT HEAD       1
      74       1      37     180       1.900000         CONSTANT HEAD       1
      75       1      38       1       1.900000         CONSTANT HEAD       1
      76       1      38     180       1.900000         CONSTANT HEAD       1
      77       1      39       1       1.900000         CONSTANT HEAD       1
      78       1      39     180       1.900000         CONSTANT HEAD       1
      79       1      40       1       1.900000         CONSTANT HEAD       1
      80       1      40     180       1.900000         CONSTANT HEAD       1
      81       1      41       1       1.900000         CONSTANT HEAD       1
      82       1      41     180       1.900000         CONSTANT HEAD       1
      83       1      42       1       1.900000         CONSTANT HEAD       1
      84       1      42     180       1.900000         CONSTANT HEAD       1
      85       1      43       1       1.900000         CONSTANT HEAD       1
      86       1      43     180       1.900000         CONSTANT HEAD       1
      87       1      44       1       1.900000         CONSTANT HEAD       1
      88       1      44     180       1.900000         CONSTANT HEAD       1
      89       1      45       1       1.900000         CONSTANT HEAD       1
      90       1      45     180       1.900000         CONSTANT HEAD       1
      91       1      46       1       1.900000         CONSTANT HEAD       1
      92       1      46     180       1.900000         CONSTANT HEAD       1
      93       1      47       1       1.900000         CONSTANT HEAD       1
      94       1      47     180       1.900000         CONSTANT HEAD       1
      95       1      48       1       1.900000         CONSTANT HEAD       1
      96       1      48     180       1.900000         CONSTANT HEAD       1
      97       1      49       1       1.900000         CONSTANT HEAD       1
      98       1      49     180       1.900000         CONSTANT HEAD       1
      99       1      50       1       1.900000         CONSTANT HEAD       1
     100       1      50     180       1.900000         CONSTANT HEAD       1
     101       1      51       1       1.900000         CONSTANT HEAD       1
     102       1      51     180       1.900000         CONSTANT HEAD       1
     103       1      52       1       1.900000         CONSTANT HEAD       1
     104       1      52     180       1.900000         CONSTANT HEAD       1
     105       1      53       1       1.900000         CONSTANT HEAD       1
     106       1      53     180       1.900000         CONSTANT HEAD       1
     107       1      54       1       1.900000         CONSTANT HEAD       1
     108       1      54     180       1.900000         CONSTANT HEAD       1
     109       1      55       1       1.900000         CONSTANT HEAD       1
     110       1      55     180       1.900000         CONSTANT HEAD       1
     111       1      56       1       1.900000         CONSTANT HEAD       1
     112       1      56     180       1.900000         CONSTANT HEAD       1
     113       1      57       1       1.900000         CONSTANT HEAD       1
     114       1      57     180       1.900000         CONSTANT HEAD       1
     115       1      58       1       1.900000         CONSTANT HEAD       1
     116       1      58     180       1.900000         CONSTANT HEAD       1
     117       1      59       1       1.900000         CONSTANT HEAD       1
     118       1      59     180       1.900000         CONSTANT HEAD       1
     119       1      60       1       1.900000         CONSTANT HEAD       1
     120       1      60     180       1.900000         CONSTANT HEAD       1
     121       1      61       1       1.900000         CONSTANT HEAD       1
     122       1      61     180       1.900000         CONSTANT HEAD       1
     123       1      62       1       1.900000         CONSTANT HEAD       1
     124       1      62     180       1.900000         CONSTANT HEAD       1
     125       1      63       1       1.900000         CONSTANT HEAD       1
     126       1      63     180       1.900000         CONSTANT HEAD       1
     127       1      64       1       1.900000         CONSTANT HEAD       1
     128       1      64     180       1.900000         CONSTANT HEAD       1
     129       1      65       1       1.900000         CONSTANT HEAD       1
     130       1      65     180       1.900000         CONSTANT HEAD       1
     131       1      66       1       1.900000         CONSTANT HEAD       1
     132       1      66     180       1.900000         CONSTANT HEAD       1
     133       1      67       1       1.900000         CONSTANT HEAD       1
     134       1      67     180       1.900000         CONSTANT HEAD       1
     135       1      68       1       1.900000         CONSTANT HEAD       1
     136       1      68     180       1.900000         CONSTANT HEAD       1
     137       1      69       1       1.900000         CONSTANT HEAD       1
     138       1      69     180       1.900000         CONSTANT HEAD       1
     139       1      70       1       1.900000         CONSTANT HEAD       1
     140       1      70     180       1.900000         CONSTANT HEAD       1
     141       1      71       1       1.900000         CONSTANT HEAD       1
     142       1      71     180       1.900000         CONSTANT HEAD       1
     143       1      72       1       1.900000         CONSTANT HEAD       1
     144       1      72     180       1.900000         CONSTANT HEAD       1
     145       1      73       1       1.900000         CONSTANT HEAD       1
     146       1      73     180       1.900000         CONSTANT HEAD       1
     147       1      74       1       1.900000         CONSTANT HEAD       1
     148       1      74     180       1.900000         CONSTANT HEAD       1
     149       1      75       1       1.900000         CONSTANT HEAD       1
     150       1      75     180       1.900000         CONSTANT HEAD       1
     151       1      76       1       1.900000         CONSTANT HEAD       1
     152       1      76     180       1.900000         CONSTANT HEAD       1
     153       1      77       1       1.900000         CONSTANT HEAD       1
     154       1      77     180       1.900000         CONSTANT HEAD       1
     155       1      78       1       1.900000         CONSTANT HEAD       1
     156       1      78     180       1.900000         CONSTANT HEAD       1
     157       1      79       1       1.900000         CONSTANT HEAD       1
     158       1      79     180       1.900000         CONSTANT HEAD       1
     159       1      80       1       1.900000         CONSTANT HEAD       1
     160       1      80     180       1.900000         CONSTANT HEAD       1
     161       1      81       1       1.900000         CONSTANT HEAD       1
     162       1      81     180       1.900000         CONSTANT HEAD       1
     163       1      82       1       1.900000         CONSTANT HEAD       1
     164       1      82     180       1.900000         CONSTANT HEAD       1
     165       1      83       1       1.900000         CONSTANT HEAD       1
     166       1      83     180       1.900000         CONSTANT HEAD       1
     167       1      84       1       1.900000         CONSTANT HEAD       1
     168       1      84     180       1.900000         CONSTANT HEAD       1
     169       1      85       1       1.900000         CONSTANT HEAD       1
     170       1      85     180       1.900000         CONSTANT HEAD       1
     171       1      86       1       1.900000         CONSTANT HEAD       1
     172       1      86     180       1.900000         CONSTANT HEAD       1
     173       1      87       1       1.900000         CONSTANT HEAD       1
     174       1      87     180       1.900000         CONSTANT HEAD       1
     175       1      88       1       1.900000         CONSTANT HEAD       1
     176       1      88     180       1.900000         CONSTANT HEAD       1
     177       1      89       1       1.900000         CONSTANT HEAD       1
     178       1      89     180       1.900000         CONSTANT HEAD       1
     179       1      90       1       1.900000         CONSTANT HEAD       1
     180       1      90     180       1.900000         CONSTANT HEAD       1
     181       1      91       1       1.900000         CONSTANT HEAD       1
     182       1      91     180       1.900000         CONSTANT HEAD       1
     183       1      92       1       1.900000         CONSTANT HEAD       1
     184       1      92     180       1.900000         CONSTANT HEAD       1
     185       1      93       1       1.900000         CONSTANT HEAD       1
     186       1      93     180       1.900000         CONSTANT HEAD       1
     187       1      94       1       1.900000         CONSTANT HEAD       1
     188       1      94     180       1.900000         CONSTANT HEAD       1
     189       1      95       1       1.900000         CONSTANT HEAD       1
     190       1      95     180       1.900000         CONSTANT HEAD       1
     191       1      96       1       1.900000         CONSTANT HEAD       1
     192       1      96     180       1.900000         CONSTANT HEAD       1
     193       1      97       1       1.900000         CONSTANT HEAD       1
     194       1      97     180       1.900000         CONSTANT HEAD       1
     195       1      98       1       1.900000         CONSTANT HEAD       1
     196       1      98     180       1.900000         CONSTANT HEAD       1
     197       1      99       1       1.900000         CONSTANT HEAD       1
     198       1      99     180       1.900000         CONSTANT HEAD       1
     199       1     100       1       1.900000         CONSTANT HEAD       1
     200       1     100     180       1.900000         CONSTANT HEAD       1
     201       1     101       1       1.900000         CONSTANT HEAD       1
     202       1     101     180       1.900000         CONSTANT HEAD       1
     203       1     102       1       1.900000         CONSTANT HEAD       1
     204       1     102     180       1.900000         CONSTANT HEAD       1
     205       1     103       1       1.900000         CONSTANT HEAD       1
     206       1     103     180       1.900000         CONSTANT HEAD       1
     207       1     104       1       1.900000         CONSTANT HEAD       1
     208       1     104     180       1.900000         CONSTANT HEAD       1
     209       1     105       1       1.900000         CONSTANT HEAD       1
     210       1     105     180       1.900000         CONSTANT HEAD       1
     211       1     106       1       1.900000         CONSTANT HEAD       1
     212       1     106     180       1.900000         CONSTANT HEAD       1
     213       1     107       1       1.900000         CONSTANT HEAD       1
     214       1     107     180       1.900000         CONSTANT HEAD       1
     215       1     108       1       1.900000         CONSTANT HEAD       1
     216       1     108     180       1.900000         CONSTANT HEAD       1
     217       1     109       1       1.900000         CONSTANT HEAD       1
     218       1     109     180       1.900000         CONSTANT HEAD       1
     219       1     110       1       1.900000         CONSTANT HEAD       1
     220       1     110     180       1.900000         CONSTANT HEAD       1
     221       1     111       1       1.900000         CONSTANT HEAD       1
     222       1     111     180       1.900000         CONSTANT HEAD       1
     223       1     112       1       1.900000         CONSTANT HEAD       1
     224       1     112     180       1.900000         CONSTANT HEAD       1
     225       1     113       1       1.900000         CONSTANT HEAD       1
     226       1     113     180       1.900000         CONSTANT HEAD       1
     227       1     114       1       1.900000         CONSTANT HEAD       1
     228       1     114     180       1.900000         CONSTANT HEAD       1
     229       1     115       1       1.900000         CONSTANT HEAD       1
     230       1     115     180       1.900000         CONSTANT HEAD       1
     231       1     116       1       1.900000         CONSTANT HEAD       1
     232       1     116     180       1.900000         CONSTANT HEAD       1
     233       1     117       1       1.900000         CONSTANT HEAD       1
     234       1     117     180       1.900000         CONSTANT HEAD       1
     235       1     118       1       1.900000         CONSTANT HEAD       1
     236       1     118     180       1.900000         CONSTANT HEAD       1
     237       1     119       1       1.900000         CONSTANT HEAD       1
     238       1     119     180       1.900000         CONSTANT HEAD       1
     239       1     120       1       1.900000         CONSTANT HEAD       1
     240       1     120     180       1.900000         CONSTANT HEAD       1
     241       1     121       1       1.900000         CONSTANT HEAD       1
     242       1     121     180       1.900000         CONSTANT HEAD       1
     243       1     122       1       1.900000         CONSTANT HEAD       1
     244       1     122     180       1.900000         CONSTANT HEAD       1
     245       1     123       1       1.900000         CONSTANT HEAD       1
     246       1     123     180       1.900000         CONSTANT HEAD       1
     247       1     124       1       1.900000         CONSTANT HEAD       1
     248       1     124     180       1.900000         CONSTANT HEAD       1
     249       1     125       1       1.900000         CONSTANT HEAD       1
     250       1     125     180       1.900000         CONSTANT HEAD       1
     251       1     126       1       1.900000         CONSTANT HEAD       1
     252       1     126     180       1.900000         CONSTANT HEAD       1
     253       1     127       1       1.900000         CONSTANT HEAD       1
     254       1     127     180       1.900000         CONSTANT HEAD       1
     255       1     128       1       1.900000         CONSTANT HEAD       1
     256       1     128     180       1.900000         CONSTANT HEAD       1
     257       1     129       1       1.900000         CONSTANT HEAD       1
     258       1     129     180       1.900000         CONSTANT HEAD       1
     259       1     130       1       1.900000         CONSTANT HEAD       1
     260       1     130     180       1.900000         CONSTANT HEAD       1
     261       1     131       1       1.900000         CONSTANT HEAD       1
     262       1     131     180       1.900000         CONSTANT HEAD       1
     263       1     132       1       1.900000         CONSTANT HEAD       1
     264       1     132     180       1.900000         CONSTANT HEAD       1
     265       1     133       1       1.900000         CONSTANT HEAD       1
     266       1     133     180       1.900000         CONSTANT HEAD       1
     267       1     134       1       1.900000         CONSTANT HEAD       1
     268       1     134     180       1.900000         CONSTANT HEAD       1
     269       1     135       1       1.900000         CONSTANT HEAD       1
     270       1     135     180       1.900000         CONSTANT HEAD       1
     271       1     136       1       1.900000         CONSTANT HEAD       1
     272       1     136     180       1.900000         CONSTANT HEAD       1
     273       1     137       1       1.900000         CONSTANT HEAD       1
     274       1     137     180       1.900000         CONSTANT HEAD       1
     275       1     138       1       1.900000         CONSTANT HEAD       1
     276       1     138     180       1.900000         CONSTANT HEAD       1
     277       1     139       1       1.900000         CONSTANT HEAD       1
     278       1     139     180       1.900000         CONSTANT HEAD       1
     279       1     140       1       1.900000         CONSTANT HEAD       1
     280       1     140     180       1.900000         CONSTANT HEAD       1
     281       1     141       1       1.900000         CONSTANT HEAD       1
     282       1     141     180       1.900000         CONSTANT HEAD       1
     283       1     142       1       1.900000         CONSTANT HEAD       1
     284       1     142     180       1.900000         CONSTANT HEAD       1
     285       1     143       1       1.900000         CONSTANT HEAD       1
     286       1     143     180       1.900000         CONSTANT HEAD       1
     287       1     144       1       1.900000         CONSTANT HEAD       1
     288       1     144     180       1.900000         CONSTANT HEAD       1
     289       1     145       1       1.900000         CONSTANT HEAD       1
     290       1     145     180       1.900000         CONSTANT HEAD       1
     291       1     146       1       1.900000         CONSTANT HEAD       1
     292       1     146     180       1.900000         CONSTANT HEAD       1
     293       1     147       1       1.900000         CONSTANT HEAD       1
     294       1     147     180       1.900000         CONSTANT HEAD       1
     295       1     148       1       1.900000         CONSTANT HEAD       1
     296       1     148     180       1.900000         CONSTANT HEAD       1
     297       1     149       1       1.900000         CONSTANT HEAD       1
     298       1     149     180       1.900000         CONSTANT HEAD       1
     299       1     150       1       1.900000         CONSTANT HEAD       1
     300       1     150     180       1.900000         CONSTANT HEAD       1
     301       1     151       1       1.900000         CONSTANT HEAD       1
     302       1     151     180       1.900000         CONSTANT HEAD       1
     303       1     152       1       1.900000         CONSTANT HEAD       1
     304       1     152     180       1.900000         CONSTANT HEAD       1
     305       1     153       1       1.900000         CONSTANT HEAD       1
     306       1     153     180       1.900000         CONSTANT HEAD       1
     307       1     154       1       1.900000         CONSTANT HEAD       1
     308       1     154     180       1.900000         CONSTANT HEAD       1
     309       1     155       1       1.900000         CONSTANT HEAD       1
     310       1     155     180       1.900000         CONSTANT HEAD       1
     311       1     156       1       1.900000         CONSTANT HEAD       1
     312       1     156     180       1.900000         CONSTANT HEAD       1
     313       1     157       1       1.900000         CONSTANT HEAD       1
     314       1     157     180       1.900000         CONSTANT HEAD       1
     315       1     158       1       1.900000         CONSTANT HEAD       1
     316       1     158     180       1.900000         CONSTANT HEAD       1
     317       1     159       1       1.900000         CONSTANT HEAD       1
     318       1     159     180       1.900000         CONSTANT HEAD       1
     319       1     160       1       1.900000         CONSTANT HEAD       1
     320       1     160     180       1.900000         CONSTANT HEAD       1
     321       1     161       1       1.900000         CONSTANT HEAD       1
     322       1     161     180       1.900000         CONSTANT HEAD       1
     323       1     162       1       1.900000         CONSTANT HEAD       1
     324       1     162     180       1.900000         CONSTANT HEAD       1
     325       1     163       1       1.900000         CONSTANT HEAD       1
     326       1     163     180       1.900000         CONSTANT HEAD       1
     327       1     164       1       1.900000         CONSTANT HEAD       1
     328       1     164     180       1.900000         CONSTANT HEAD       1
     329       1     165       1       1.900000         CONSTANT HEAD       1
     330       1     165     180       1.900000         CONSTANT HEAD       1
     331       1     166       1       1.900000         CONSTANT HEAD       1
     332       1     166     180       1.900000         CONSTANT HEAD       1
     333       1     167       1       1.900000         CONSTANT HEAD       1
     334       1     167     180       1.900000         CONSTANT HEAD       1
     335       1     168       1       1.900000         CONSTANT HEAD       1
     336       1     168     180       1.900000         CONSTANT HEAD       1
     337       1     169       1       1.900000         CONSTANT HEAD       1
     338       1     169     180       1.900000         CONSTANT HEAD       1
     339       1     170       1       1.900000         CONSTANT HEAD       1
     340       1     170     180       1.900000         CONSTANT HEAD       1
     341       1     171       1       1.900000         CONSTANT HEAD       1
     342       1     171     180       1.900000         CONSTANT HEAD       1
     343       1     172       1       1.900000         CONSTANT HEAD       1
     344       1     172     180       1.900000         CONSTANT HEAD       1
     345       1     173       1       1.900000         CONSTANT HEAD       1
     346       1     173     180       1.900000         CONSTANT HEAD       1
     347       1     174       1       1.900000         CONSTANT HEAD       1
     348       1     174     180       1.900000         CONSTANT HEAD       1
     349       1     175       1       1.900000         CONSTANT HEAD       1
     350       1     175     180       1.900000         CONSTANT HEAD       1
     351       1     176       1       1.900000         CONSTANT HEAD       1
     352       1     176     180       1.900000         CONSTANT HEAD       1
     353       1     177       1       1.900000         CONSTANT HEAD       1
     354       1     177     180       1.900000         CONSTANT HEAD       1
     355       1     178       1       1.900000         CONSTANT HEAD       1
     356       1     178     180       1.900000         CONSTANT HEAD       1
     357       1     179       1       1.900000         CONSTANT HEAD       1
     358       1     179     180       1.900000         CONSTANT HEAD       1
     359       1     180       1       1.900000         CONSTANT HEAD       1
     360       1     180     180       1.900000         CONSTANT HEAD       1
     361       1      91      91      0.1500000         WELL                1


                                          ================================================
                                                         TIME STEP NO.  001
                                          ================================================

 FROM TIME =   360.00     TO    390.00    


                    "THKSAT          " FLOW TERMS FOR TIME STEP  1, STRESS PERIOD 13 READ UNFORMATTED ON UNIT 10
                    --------------------------------------------------------------------------------------------

                    "QXX             " FLOW TERMS FOR TIME STEP  1, STRESS PERIOD 13 READ UNFORMATTED ON UNIT 10
                    --------------------------------------------------------------------------------------------

                    "QYY             " FLOW TERMS FOR TIME STEP  1, STRESS PERIOD 13 READ UNFORMATTED ON UNIT 10
                    --------------------------------------------------------------------------------------------

                    "STO             " FLOW TERMS FOR TIME STEP  1, STRESS PERIOD 13 READ UNFORMATTED ON UNIT 10
                    --------------------------------------------------------------------------------------------

 MAXIMUM STEPSIZE DURING WHICH ANY PARTICLE CANNOT MOVE MORE THAN ONE CELL
 =  1.074    (WHEN MIN. R.F.=1)  AT K=   1, I=  91, J=  90

 MAXIMUM STEPSIZE WHICH MEETS STABILITY CRITERION OF THE ADVECTION TERM
 (FOR PURE FINITE-DIFFERENCE OPTION, MIXELM=0) 
 = 0.3909    (WHEN MIN. R.F.=1)  AT K=   1, I=  91, J=  91

                    "CNH             " FLOW TERMS FOR TIME STEP  1, STRESS PERIOD 13 READ UNFORMATTED ON UNIT 10
                    --------------------------------------------------------------------------------------------

                    "WEL             " FLOW TERMS FOR TIME STEP  1, STRESS PERIOD 13 READ UNFORMATTED ON UNIT 10
                    --------------------------------------------------------------------------------------------


 TOTAL NUMBER OF POINT SOURCES/SINKS PRESENT IN THE FLOW MODEL =   361

 MAXIMUM STEPSIZE WHICH MEETS STABILITY CRITERION OF THE SINK & SOURCE TERM
 = 0.1956    (WHEN MIN. R.F.=1)  AT K=   1, I=  91, J=  91

 MAXIMUM STEPSIZE WHICH MEETS STABILITY CRITERION OF THE DISPERSION TERM
 = 0.1958    (WHEN MIN. R.F.=1)  AT K=   1, I=  91, J=  91


     1 CALLS TO GCG PACKAGE FOR TRANSPORT TIME STEP     1 IN FLOW TIME STEP     1 STRESS PERIOD    13
     11 TOTAL ITERATIONS
  MAXIMUM CONCENTRATION CHANGES FOR EACH ITERATION:
  MAX. CHANGE LAYER,ROW,COL MAX. CHANGE LAYER,ROW,COL MAX. CHANGE LAYER,ROW,COL MAX. CHANGE LAYER,ROW,COL MAX. CHANGE LAYER,ROW,COL
 ------------------------------------------------------------------------------------------------------------------------------------
   0.1956     (  1, 90, 95)  0.1250     (  1, 90, 94)  0.4774E-01 (  1, 88, 96)  0.1608E-01 (  1, 86, 97)  0.4770E-02 (  1, 85, 99)
   0.9999E-03 (  1, 83,100)  0.3529E-03 (  1, 83,101)  0.5590E-03 (  1,102, 81)  0.3034E-03 (  1, 82,102)  0.1860E-04 (  1,103, 81)
   0.3994E-05 (  1,104, 80)



 >>>>>>>>>>>>>>>>>>>>>>>>>>>>>>>>>>>>>>>>>>>>>>>>>>>>>>>FOR COMPONENT NO. 01<<<<<<<<<<<<<<<<<<<<<<<<<<<<<<<<<<<<<<<<<<<<<<<<<<<<<<<


                                            -------------------------------------------
                                                      TRANSPORT STEP NO.    1
                                            -------------------------------------------

 TOTAL ELAPSED TIME SINCE BEGINNING OF SIMULATION =   390.0000    D   
 .....................................................................

                     CUMULATIVE MASS BUDGETS AT END OF TRANSPORT STEP    1, TIME STEP    1, STRESS PERIOD   13
                     -----------------------------------------------------------------------------------------

                                                             IN                           OUT
                                                      ----------------             ----------------
                               CONSTANT CONCENTRATION:    0.000000                    0.000000    
                                        CONSTANT HEAD:    2954374.                   -3052915.    
                                                WELLS:    67187.48                   -101604.6    
                               MASS STOR (FLOW MODEL):    2611044.                   -2977817.    
                                MASS STORAGE (SOLUTE):    777398.2                   -277290.4    
                            ---------------------------------------------------------------------------
                                              [TOTAL]:    6410004.     KG            -6409626.     KG  

                                                          NET (IN - OUT):    377.5000    
                                                   DISCREPANCY (PERCENT):   0.5889405E-02


                                   ++++++++++++++++++++++++++++++++++++++++++++++++++++++++++++++
                                                       STRESS PERIOD NO.  014
                                   ++++++++++++++++++++++++++++++++++++++++++++++++++++++++++++++


 LENGTH OF CURRENT STRESS PERIOD =   30.00000    
 NUMBER OF TIME STEPS FOR CURRENT STRESS PERIOD =    1
 TIME STEP MULTIPLIER USED IN FLOW SOLUTION =   1.000000    

 ***Type of Transport Simulation is TRANSIENT

 USER-SPECIFIED TRANSPORT STEPSIZE =   30.00000    D   
 MAXIMUM NUMBER OF TRANSPORT STEPS ALLOWED  IN ONE FLOW TIME STEP =     50000
 MULTIPLIER FOR SUCCESSIVE TRANSPORT STEPS  [USED IN IMPLICIT SCHEMES] =     1.000
 MAXIMUM TRANSPORT STEP SIZE  [USED IN IMPLICIT SCHEMES] =   0.000000    D   

       NO    LAYER   ROW   COLUMN   CONCENTRATION       TYPE            COMPONENT
       1       1       1       1       1.900000         CONSTANT HEAD       1
       2       1       1     180       1.900000         CONSTANT HEAD       1
       3       1       2       1       1.900000         CONSTANT HEAD       1
       4       1       2     180       1.900000         CONSTANT HEAD       1
       5       1       3       1       1.900000         CONSTANT HEAD       1
       6       1       3     180       1.900000         CONSTANT HEAD       1
       7       1       4       1       1.900000         CONSTANT HEAD       1
       8       1       4     180       1.900000         CONSTANT HEAD       1
       9       1       5       1       1.900000         CONSTANT HEAD       1
      10       1       5     180       1.900000         CONSTANT HEAD       1
      11       1       6       1       1.900000         CONSTANT HEAD       1
      12       1       6     180       1.900000         CONSTANT HEAD       1
      13       1       7       1       1.900000         CONSTANT HEAD       1
      14       1       7     180       1.900000         CONSTANT HEAD       1
      15       1       8       1       1.900000         CONSTANT HEAD       1
      16       1       8     180       1.900000         CONSTANT HEAD       1
      17       1       9       1       1.900000         CONSTANT HEAD       1
      18       1       9     180       1.900000         CONSTANT HEAD       1
      19       1      10       1       1.900000         CONSTANT HEAD       1
      20       1      10     180       1.900000         CONSTANT HEAD       1
      21       1      11       1       1.900000         CONSTANT HEAD       1
      22       1      11     180       1.900000         CONSTANT HEAD       1
      23       1      12       1       1.900000         CONSTANT HEAD       1
      24       1      12     180       1.900000         CONSTANT HEAD       1
      25       1      13       1       1.900000         CONSTANT HEAD       1
      26       1      13     180       1.900000         CONSTANT HEAD       1
      27       1      14       1       1.900000         CONSTANT HEAD       1
      28       1      14     180       1.900000         CONSTANT HEAD       1
      29       1      15       1       1.900000         CONSTANT HEAD       1
      30       1      15     180       1.900000         CONSTANT HEAD       1
      31       1      16       1       1.900000         CONSTANT HEAD       1
      32       1      16     180       1.900000         CONSTANT HEAD       1
      33       1      17       1       1.900000         CONSTANT HEAD       1
      34       1      17     180       1.900000         CONSTANT HEAD       1
      35       1      18       1       1.900000         CONSTANT HEAD       1
      36       1      18     180       1.900000         CONSTANT HEAD       1
      37       1      19       1       1.900000         CONSTANT HEAD       1
      38       1      19     180       1.900000         CONSTANT HEAD       1
      39       1      20       1       1.900000         CONSTANT HEAD       1
      40       1      20     180       1.900000         CONSTANT HEAD       1
      41       1      21       1       1.900000         CONSTANT HEAD       1
      42       1      21     180       1.900000         CONSTANT HEAD       1
      43       1      22       1       1.900000         CONSTANT HEAD       1
      44       1      22     180       1.900000         CONSTANT HEAD       1
      45       1      23       1       1.900000         CONSTANT HEAD       1
      46       1      23     180       1.900000         CONSTANT HEAD       1
      47       1      24       1       1.900000         CONSTANT HEAD       1
      48       1      24     180       1.900000         CONSTANT HEAD       1
      49       1      25       1       1.900000         CONSTANT HEAD       1
      50       1      25     180       1.900000         CONSTANT HEAD       1
      51       1      26       1       1.900000         CONSTANT HEAD       1
      52       1      26     180       1.900000         CONSTANT HEAD       1
      53       1      27       1       1.900000         CONSTANT HEAD       1
      54       1      27     180       1.900000         CONSTANT HEAD       1
      55       1      28       1       1.900000         CONSTANT HEAD       1
      56       1      28     180       1.900000         CONSTANT HEAD       1
      57       1      29       1       1.900000         CONSTANT HEAD       1
      58       1      29     180       1.900000         CONSTANT HEAD       1
      59       1      30       1       1.900000         CONSTANT HEAD       1
      60       1      30     180       1.900000         CONSTANT HEAD       1
      61       1      31       1       1.900000         CONSTANT HEAD       1
      62       1      31     180       1.900000         CONSTANT HEAD       1
      63       1      32       1       1.900000         CONSTANT HEAD       1
      64       1      32     180       1.900000         CONSTANT HEAD       1
      65       1      33       1       1.900000         CONSTANT HEAD       1
      66       1      33     180       1.900000         CONSTANT HEAD       1
      67       1      34       1       1.900000         CONSTANT HEAD       1
      68       1      34     180       1.900000         CONSTANT HEAD       1
      69       1      35       1       1.900000         CONSTANT HEAD       1
      70       1      35     180       1.900000         CONSTANT HEAD       1
      71       1      36       1       1.900000         CONSTANT HEAD       1
      72       1      36     180       1.900000         CONSTANT HEAD       1
      73       1      37       1       1.900000         CONSTANT HEAD       1
      74       1      37     180       1.900000         CONSTANT HEAD       1
      75       1      38       1       1.900000         CONSTANT HEAD       1
      76       1      38     180       1.900000         CONSTANT HEAD       1
      77       1      39       1       1.900000         CONSTANT HEAD       1
      78       1      39     180       1.900000         CONSTANT HEAD       1
      79       1      40       1       1.900000         CONSTANT HEAD       1
      80       1      40     180       1.900000         CONSTANT HEAD       1
      81       1      41       1       1.900000         CONSTANT HEAD       1
      82       1      41     180       1.900000         CONSTANT HEAD       1
      83       1      42       1       1.900000         CONSTANT HEAD       1
      84       1      42     180       1.900000         CONSTANT HEAD       1
      85       1      43       1       1.900000         CONSTANT HEAD       1
      86       1      43     180       1.900000         CONSTANT HEAD       1
      87       1      44       1       1.900000         CONSTANT HEAD       1
      88       1      44     180       1.900000         CONSTANT HEAD       1
      89       1      45       1       1.900000         CONSTANT HEAD       1
      90       1      45     180       1.900000         CONSTANT HEAD       1
      91       1      46       1       1.900000         CONSTANT HEAD       1
      92       1      46     180       1.900000         CONSTANT HEAD       1
      93       1      47       1       1.900000         CONSTANT HEAD       1
      94       1      47     180       1.900000         CONSTANT HEAD       1
      95       1      48       1       1.900000         CONSTANT HEAD       1
      96       1      48     180       1.900000         CONSTANT HEAD       1
      97       1      49       1       1.900000         CONSTANT HEAD       1
      98       1      49     180       1.900000         CONSTANT HEAD       1
      99       1      50       1       1.900000         CONSTANT HEAD       1
     100       1      50     180       1.900000         CONSTANT HEAD       1
     101       1      51       1       1.900000         CONSTANT HEAD       1
     102       1      51     180       1.900000         CONSTANT HEAD       1
     103       1      52       1       1.900000         CONSTANT HEAD       1
     104       1      52     180       1.900000         CONSTANT HEAD       1
     105       1      53       1       1.900000         CONSTANT HEAD       1
     106       1      53     180       1.900000         CONSTANT HEAD       1
     107       1      54       1       1.900000         CONSTANT HEAD       1
     108       1      54     180       1.900000         CONSTANT HEAD       1
     109       1      55       1       1.900000         CONSTANT HEAD       1
     110       1      55     180       1.900000         CONSTANT HEAD       1
     111       1      56       1       1.900000         CONSTANT HEAD       1
     112       1      56     180       1.900000         CONSTANT HEAD       1
     113       1      57       1       1.900000         CONSTANT HEAD       1
     114       1      57     180       1.900000         CONSTANT HEAD       1
     115       1      58       1       1.900000         CONSTANT HEAD       1
     116       1      58     180       1.900000         CONSTANT HEAD       1
     117       1      59       1       1.900000         CONSTANT HEAD       1
     118       1      59     180       1.900000         CONSTANT HEAD       1
     119       1      60       1       1.900000         CONSTANT HEAD       1
     120       1      60     180       1.900000         CONSTANT HEAD       1
     121       1      61       1       1.900000         CONSTANT HEAD       1
     122       1      61     180       1.900000         CONSTANT HEAD       1
     123       1      62       1       1.900000         CONSTANT HEAD       1
     124       1      62     180       1.900000         CONSTANT HEAD       1
     125       1      63       1       1.900000         CONSTANT HEAD       1
     126       1      63     180       1.900000         CONSTANT HEAD       1
     127       1      64       1       1.900000         CONSTANT HEAD       1
     128       1      64     180       1.900000         CONSTANT HEAD       1
     129       1      65       1       1.900000         CONSTANT HEAD       1
     130       1      65     180       1.900000         CONSTANT HEAD       1
     131       1      66       1       1.900000         CONSTANT HEAD       1
     132       1      66     180       1.900000         CONSTANT HEAD       1
     133       1      67       1       1.900000         CONSTANT HEAD       1
     134       1      67     180       1.900000         CONSTANT HEAD       1
     135       1      68       1       1.900000         CONSTANT HEAD       1
     136       1      68     180       1.900000         CONSTANT HEAD       1
     137       1      69       1       1.900000         CONSTANT HEAD       1
     138       1      69     180       1.900000         CONSTANT HEAD       1
     139       1      70       1       1.900000         CONSTANT HEAD       1
     140       1      70     180       1.900000         CONSTANT HEAD       1
     141       1      71       1       1.900000         CONSTANT HEAD       1
     142       1      71     180       1.900000         CONSTANT HEAD       1
     143       1      72       1       1.900000         CONSTANT HEAD       1
     144       1      72     180       1.900000         CONSTANT HEAD       1
     145       1      73       1       1.900000         CONSTANT HEAD       1
     146       1      73     180       1.900000         CONSTANT HEAD       1
     147       1      74       1       1.900000         CONSTANT HEAD       1
     148       1      74     180       1.900000         CONSTANT HEAD       1
     149       1      75       1       1.900000         CONSTANT HEAD       1
     150       1      75     180       1.900000         CONSTANT HEAD       1
     151       1      76       1       1.900000         CONSTANT HEAD       1
     152       1      76     180       1.900000         CONSTANT HEAD       1
     153       1      77       1       1.900000         CONSTANT HEAD       1
     154       1      77     180       1.900000         CONSTANT HEAD       1
     155       1      78       1       1.900000         CONSTANT HEAD       1
     156       1      78     180       1.900000         CONSTANT HEAD       1
     157       1      79       1       1.900000         CONSTANT HEAD       1
     158       1      79     180       1.900000         CONSTANT HEAD       1
     159       1      80       1       1.900000         CONSTANT HEAD       1
     160       1      80     180       1.900000         CONSTANT HEAD       1
     161       1      81       1       1.900000         CONSTANT HEAD       1
     162       1      81     180       1.900000         CONSTANT HEAD       1
     163       1      82       1       1.900000         CONSTANT HEAD       1
     164       1      82     180       1.900000         CONSTANT HEAD       1
     165       1      83       1       1.900000         CONSTANT HEAD       1
     166       1      83     180       1.900000         CONSTANT HEAD       1
     167       1      84       1       1.900000         CONSTANT HEAD       1
     168       1      84     180       1.900000         CONSTANT HEAD       1
     169       1      85       1       1.900000         CONSTANT HEAD       1
     170       1      85     180       1.900000         CONSTANT HEAD       1
     171       1      86       1       1.900000         CONSTANT HEAD       1
     172       1      86     180       1.900000         CONSTANT HEAD       1
     173       1      87       1       1.900000         CONSTANT HEAD       1
     174       1      87     180       1.900000         CONSTANT HEAD       1
     175       1      88       1       1.900000         CONSTANT HEAD       1
     176       1      88     180       1.900000         CONSTANT HEAD       1
     177       1      89       1       1.900000         CONSTANT HEAD       1
     178       1      89     180       1.900000         CONSTANT HEAD       1
     179       1      90       1       1.900000         CONSTANT HEAD       1
     180       1      90     180       1.900000         CONSTANT HEAD       1
     181       1      91       1       1.900000         CONSTANT HEAD       1
     182       1      91     180       1.900000         CONSTANT HEAD       1
     183       1      92       1       1.900000         CONSTANT HEAD       1
     184       1      92     180       1.900000         CONSTANT HEAD       1
     185       1      93       1       1.900000         CONSTANT HEAD       1
     186       1      93     180       1.900000         CONSTANT HEAD       1
     187       1      94       1       1.900000         CONSTANT HEAD       1
     188       1      94     180       1.900000         CONSTANT HEAD       1
     189       1      95       1       1.900000         CONSTANT HEAD       1
     190       1      95     180       1.900000         CONSTANT HEAD       1
     191       1      96       1       1.900000         CONSTANT HEAD       1
     192       1      96     180       1.900000         CONSTANT HEAD       1
     193       1      97       1       1.900000         CONSTANT HEAD       1
     194       1      97     180       1.900000         CONSTANT HEAD       1
     195       1      98       1       1.900000         CONSTANT HEAD       1
     196       1      98     180       1.900000         CONSTANT HEAD       1
     197       1      99       1       1.900000         CONSTANT HEAD       1
     198       1      99     180       1.900000         CONSTANT HEAD       1
     199       1     100       1       1.900000         CONSTANT HEAD       1
     200       1     100     180       1.900000         CONSTANT HEAD       1
     201       1     101       1       1.900000         CONSTANT HEAD       1
     202       1     101     180       1.900000         CONSTANT HEAD       1
     203       1     102       1       1.900000         CONSTANT HEAD       1
     204       1     102     180       1.900000         CONSTANT HEAD       1
     205       1     103       1       1.900000         CONSTANT HEAD       1
     206       1     103     180       1.900000         CONSTANT HEAD       1
     207       1     104       1       1.900000         CONSTANT HEAD       1
     208       1     104     180       1.900000         CONSTANT HEAD       1
     209       1     105       1       1.900000         CONSTANT HEAD       1
     210       1     105     180       1.900000         CONSTANT HEAD       1
     211       1     106       1       1.900000         CONSTANT HEAD       1
     212       1     106     180       1.900000         CONSTANT HEAD       1
     213       1     107       1       1.900000         CONSTANT HEAD       1
     214       1     107     180       1.900000         CONSTANT HEAD       1
     215       1     108       1       1.900000         CONSTANT HEAD       1
     216       1     108     180       1.900000         CONSTANT HEAD       1
     217       1     109       1       1.900000         CONSTANT HEAD       1
     218       1     109     180       1.900000         CONSTANT HEAD       1
     219       1     110       1       1.900000         CONSTANT HEAD       1
     220       1     110     180       1.900000         CONSTANT HEAD       1
     221       1     111       1       1.900000         CONSTANT HEAD       1
     222       1     111     180       1.900000         CONSTANT HEAD       1
     223       1     112       1       1.900000         CONSTANT HEAD       1
     224       1     112     180       1.900000         CONSTANT HEAD       1
     225       1     113       1       1.900000         CONSTANT HEAD       1
     226       1     113     180       1.900000         CONSTANT HEAD       1
     227       1     114       1       1.900000         CONSTANT HEAD       1
     228       1     114     180       1.900000         CONSTANT HEAD       1
     229       1     115       1       1.900000         CONSTANT HEAD       1
     230       1     115     180       1.900000         CONSTANT HEAD       1
     231       1     116       1       1.900000         CONSTANT HEAD       1
     232       1     116     180       1.900000         CONSTANT HEAD       1
     233       1     117       1       1.900000         CONSTANT HEAD       1
     234       1     117     180       1.900000         CONSTANT HEAD       1
     235       1     118       1       1.900000         CONSTANT HEAD       1
     236       1     118     180       1.900000         CONSTANT HEAD       1
     237       1     119       1       1.900000         CONSTANT HEAD       1
     238       1     119     180       1.900000         CONSTANT HEAD       1
     239       1     120       1       1.900000         CONSTANT HEAD       1
     240       1     120     180       1.900000         CONSTANT HEAD       1
     241       1     121       1       1.900000         CONSTANT HEAD       1
     242       1     121     180       1.900000         CONSTANT HEAD       1
     243       1     122       1       1.900000         CONSTANT HEAD       1
     244       1     122     180       1.900000         CONSTANT HEAD       1
     245       1     123       1       1.900000         CONSTANT HEAD       1
     246       1     123     180       1.900000         CONSTANT HEAD       1
     247       1     124       1       1.900000         CONSTANT HEAD       1
     248       1     124     180       1.900000         CONSTANT HEAD       1
     249       1     125       1       1.900000         CONSTANT HEAD       1
     250       1     125     180       1.900000         CONSTANT HEAD       1
     251       1     126       1       1.900000         CONSTANT HEAD       1
     252       1     126     180       1.900000         CONSTANT HEAD       1
     253       1     127       1       1.900000         CONSTANT HEAD       1
     254       1     127     180       1.900000         CONSTANT HEAD       1
     255       1     128       1       1.900000         CONSTANT HEAD       1
     256       1     128     180       1.900000         CONSTANT HEAD       1
     257       1     129       1       1.900000         CONSTANT HEAD       1
     258       1     129     180       1.900000         CONSTANT HEAD       1
     259       1     130       1       1.900000         CONSTANT HEAD       1
     260       1     130     180       1.900000         CONSTANT HEAD       1
     261       1     131       1       1.900000         CONSTANT HEAD       1
     262       1     131     180       1.900000         CONSTANT HEAD       1
     263       1     132       1       1.900000         CONSTANT HEAD       1
     264       1     132     180       1.900000         CONSTANT HEAD       1
     265       1     133       1       1.900000         CONSTANT HEAD       1
     266       1     133     180       1.900000         CONSTANT HEAD       1
     267       1     134       1       1.900000         CONSTANT HEAD       1
     268       1     134     180       1.900000         CONSTANT HEAD       1
     269       1     135       1       1.900000         CONSTANT HEAD       1
     270       1     135     180       1.900000         CONSTANT HEAD       1
     271       1     136       1       1.900000         CONSTANT HEAD       1
     272       1     136     180       1.900000         CONSTANT HEAD       1
     273       1     137       1       1.900000         CONSTANT HEAD       1
     274       1     137     180       1.900000         CONSTANT HEAD       1
     275       1     138       1       1.900000         CONSTANT HEAD       1
     276       1     138     180       1.900000         CONSTANT HEAD       1
     277       1     139       1       1.900000         CONSTANT HEAD       1
     278       1     139     180       1.900000         CONSTANT HEAD       1
     279       1     140       1       1.900000         CONSTANT HEAD       1
     280       1     140     180       1.900000         CONSTANT HEAD       1
     281       1     141       1       1.900000         CONSTANT HEAD       1
     282       1     141     180       1.900000         CONSTANT HEAD       1
     283       1     142       1       1.900000         CONSTANT HEAD       1
     284       1     142     180       1.900000         CONSTANT HEAD       1
     285       1     143       1       1.900000         CONSTANT HEAD       1
     286       1     143     180       1.900000         CONSTANT HEAD       1
     287       1     144       1       1.900000         CONSTANT HEAD       1
     288       1     144     180       1.900000         CONSTANT HEAD       1
     289       1     145       1       1.900000         CONSTANT HEAD       1
     290       1     145     180       1.900000         CONSTANT HEAD       1
     291       1     146       1       1.900000         CONSTANT HEAD       1
     292       1     146     180       1.900000         CONSTANT HEAD       1
     293       1     147       1       1.900000         CONSTANT HEAD       1
     294       1     147     180       1.900000         CONSTANT HEAD       1
     295       1     148       1       1.900000         CONSTANT HEAD       1
     296       1     148     180       1.900000         CONSTANT HEAD       1
     297       1     149       1       1.900000         CONSTANT HEAD       1
     298       1     149     180       1.900000         CONSTANT HEAD       1
     299       1     150       1       1.900000         CONSTANT HEAD       1
     300       1     150     180       1.900000         CONSTANT HEAD       1
     301       1     151       1       1.900000         CONSTANT HEAD       1
     302       1     151     180       1.900000         CONSTANT HEAD       1
     303       1     152       1       1.900000         CONSTANT HEAD       1
     304       1     152     180       1.900000         CONSTANT HEAD       1
     305       1     153       1       1.900000         CONSTANT HEAD       1
     306       1     153     180       1.900000         CONSTANT HEAD       1
     307       1     154       1       1.900000         CONSTANT HEAD       1
     308       1     154     180       1.900000         CONSTANT HEAD       1
     309       1     155       1       1.900000         CONSTANT HEAD       1
     310       1     155     180       1.900000         CONSTANT HEAD       1
     311       1     156       1       1.900000         CONSTANT HEAD       1
     312       1     156     180       1.900000         CONSTANT HEAD       1
     313       1     157       1       1.900000         CONSTANT HEAD       1
     314       1     157     180       1.900000         CONSTANT HEAD       1
     315       1     158       1       1.900000         CONSTANT HEAD       1
     316       1     158     180       1.900000         CONSTANT HEAD       1
     317       1     159       1       1.900000         CONSTANT HEAD       1
     318       1     159     180       1.900000         CONSTANT HEAD       1
     319       1     160       1       1.900000         CONSTANT HEAD       1
     320       1     160     180       1.900000         CONSTANT HEAD       1
     321       1     161       1       1.900000         CONSTANT HEAD       1
     322       1     161     180       1.900000         CONSTANT HEAD       1
     323       1     162       1       1.900000         CONSTANT HEAD       1
     324       1     162     180       1.900000         CONSTANT HEAD       1
     325       1     163       1       1.900000         CONSTANT HEAD       1
     326       1     163     180       1.900000         CONSTANT HEAD       1
     327       1     164       1       1.900000         CONSTANT HEAD       1
     328       1     164     180       1.900000         CONSTANT HEAD       1
     329       1     165       1       1.900000         CONSTANT HEAD       1
     330       1     165     180       1.900000         CONSTANT HEAD       1
     331       1     166       1       1.900000         CONSTANT HEAD       1
     332       1     166     180       1.900000         CONSTANT HEAD       1
     333       1     167       1       1.900000         CONSTANT HEAD       1
     334       1     167     180       1.900000         CONSTANT HEAD       1
     335       1     168       1       1.900000         CONSTANT HEAD       1
     336       1     168     180       1.900000         CONSTANT HEAD       1
     337       1     169       1       1.900000         CONSTANT HEAD       1
     338       1     169     180       1.900000         CONSTANT HEAD       1
     339       1     170       1       1.900000         CONSTANT HEAD       1
     340       1     170     180       1.900000         CONSTANT HEAD       1
     341       1     171       1       1.900000         CONSTANT HEAD       1
     342       1     171     180       1.900000         CONSTANT HEAD       1
     343       1     172       1       1.900000         CONSTANT HEAD       1
     344       1     172     180       1.900000         CONSTANT HEAD       1
     345       1     173       1       1.900000         CONSTANT HEAD       1
     346       1     173     180       1.900000         CONSTANT HEAD       1
     347       1     174       1       1.900000         CONSTANT HEAD       1
     348       1     174     180       1.900000         CONSTANT HEAD       1
     349       1     175       1       1.900000         CONSTANT HEAD       1
     350       1     175     180       1.900000         CONSTANT HEAD       1
     351       1     176       1       1.900000         CONSTANT HEAD       1
     352       1     176     180       1.900000         CONSTANT HEAD       1
     353       1     177       1       1.900000         CONSTANT HEAD       1
     354       1     177     180       1.900000         CONSTANT HEAD       1
     355       1     178       1       1.900000         CONSTANT HEAD       1
     356       1     178     180       1.900000         CONSTANT HEAD       1
     357       1     179       1       1.900000         CONSTANT HEAD       1
     358       1     179     180       1.900000         CONSTANT HEAD       1
     359       1     180       1       1.900000         CONSTANT HEAD       1
     360       1     180     180       1.900000         CONSTANT HEAD       1
     361       1      91      91      0.1500000         WELL                1


                                          ================================================
                                                         TIME STEP NO.  001
                                          ================================================

 FROM TIME =   390.00     TO    420.00    


                    "THKSAT          " FLOW TERMS FOR TIME STEP  1, STRESS PERIOD 14 READ UNFORMATTED ON UNIT 10
                    --------------------------------------------------------------------------------------------

                    "QXX             " FLOW TERMS FOR TIME STEP  1, STRESS PERIOD 14 READ UNFORMATTED ON UNIT 10
                    --------------------------------------------------------------------------------------------

                    "QYY             " FLOW TERMS FOR TIME STEP  1, STRESS PERIOD 14 READ UNFORMATTED ON UNIT 10
                    --------------------------------------------------------------------------------------------

                    "STO             " FLOW TERMS FOR TIME STEP  1, STRESS PERIOD 14 READ UNFORMATTED ON UNIT 10
                    --------------------------------------------------------------------------------------------

 MAXIMUM STEPSIZE DURING WHICH ANY PARTICLE CANNOT MOVE MORE THAN ONE CELL
 =  1.022    (WHEN MIN. R.F.=1)  AT K=   1, I=  91, J=  92

 MAXIMUM STEPSIZE WHICH MEETS STABILITY CRITERION OF THE ADVECTION TERM
 (FOR PURE FINITE-DIFFERENCE OPTION, MIXELM=0) 
 = 0.3719    (WHEN MIN. R.F.=1)  AT K=   1, I=  91, J=  91

                    "CNH             " FLOW TERMS FOR TIME STEP  1, STRESS PERIOD 14 READ UNFORMATTED ON UNIT 10
                    --------------------------------------------------------------------------------------------

                    "WEL             " FLOW TERMS FOR TIME STEP  1, STRESS PERIOD 14 READ UNFORMATTED ON UNIT 10
                    --------------------------------------------------------------------------------------------


 TOTAL NUMBER OF POINT SOURCES/SINKS PRESENT IN THE FLOW MODEL =   361

 MAXIMUM STEPSIZE WHICH MEETS STABILITY CRITERION OF THE SINK & SOURCE TERM
 = 0.6236E+05(WHEN MIN. R.F.=1)  AT K=   1, I=   1, J= 180

 MAXIMUM STEPSIZE WHICH MEETS STABILITY CRITERION OF THE DISPERSION TERM
 = 0.1860    (WHEN MIN. R.F.=1)  AT K=   1, I=  91, J=  91


     1 CALLS TO GCG PACKAGE FOR TRANSPORT TIME STEP     1 IN FLOW TIME STEP     1 STRESS PERIOD    14
      8 TOTAL ITERATIONS
  MAXIMUM CONCENTRATION CHANGES FOR EACH ITERATION:
  MAX. CHANGE LAYER,ROW,COL MAX. CHANGE LAYER,ROW,COL MAX. CHANGE LAYER,ROW,COL MAX. CHANGE LAYER,ROW,COL MAX. CHANGE LAYER,ROW,COL
 ------------------------------------------------------------------------------------------------------------------------------------
   0.1805     (  1, 91, 91)  0.7694E-02 (  1, 88, 95)  0.5565E-02 (  1, 89, 93)  0.1020E-02 (  1, 90, 93)  0.1873E-03 (  1, 92, 92)
   0.3943E-04 (  1, 92, 92)  0.6402E-04 (  1, 92, 92)  0.3576E-05 (  1, 91, 93)



 >>>>>>>>>>>>>>>>>>>>>>>>>>>>>>>>>>>>>>>>>>>>>>>>>>>>>>>FOR COMPONENT NO. 01<<<<<<<<<<<<<<<<<<<<<<<<<<<<<<<<<<<<<<<<<<<<<<<<<<<<<<<


                                            -------------------------------------------
                                                      TRANSPORT STEP NO.    1
                                            -------------------------------------------

 TOTAL ELAPSED TIME SINCE BEGINNING OF SIMULATION =   420.0000    D   
 .....................................................................

                     CUMULATIVE MASS BUDGETS AT END OF TRANSPORT STEP    1, TIME STEP    1, STRESS PERIOD   14
                     -----------------------------------------------------------------------------------------

                                                             IN                           OUT
                                                      ----------------             ----------------
                               CONSTANT CONCENTRATION:    0.000000                    0.000000    
                                        CONSTANT HEAD:    3095500.                   -3205821.    
                                                WELLS:    67187.48                   -133476.7    
                               MASS STOR (FLOW MODEL):    2778124.                   -3017581.    
                                MASS STORAGE (SOLUTE):    777539.2                   -361002.5    
                            ---------------------------------------------------------------------------
                                              [TOTAL]:    6718350.     KG            -6717882.     KG  

                                                          NET (IN - OUT):    469.0000    
                                                   DISCREPANCY (PERCENT):   0.6981124E-02


                                   ++++++++++++++++++++++++++++++++++++++++++++++++++++++++++++++
                                                       STRESS PERIOD NO.  015
                                   ++++++++++++++++++++++++++++++++++++++++++++++++++++++++++++++


 LENGTH OF CURRENT STRESS PERIOD =   30.00000    
 NUMBER OF TIME STEPS FOR CURRENT STRESS PERIOD =    1
 TIME STEP MULTIPLIER USED IN FLOW SOLUTION =   1.000000    

 ***Type of Transport Simulation is TRANSIENT

 USER-SPECIFIED TRANSPORT STEPSIZE =   30.00000    D   
 MAXIMUM NUMBER OF TRANSPORT STEPS ALLOWED  IN ONE FLOW TIME STEP =     50000
 MULTIPLIER FOR SUCCESSIVE TRANSPORT STEPS  [USED IN IMPLICIT SCHEMES] =     1.000
 MAXIMUM TRANSPORT STEP SIZE  [USED IN IMPLICIT SCHEMES] =   0.000000    D   

       NO    LAYER   ROW   COLUMN   CONCENTRATION       TYPE            COMPONENT
       1       1       1       1       1.900000         CONSTANT HEAD       1
       2       1       1     180       1.900000         CONSTANT HEAD       1
       3       1       2       1       1.900000         CONSTANT HEAD       1
       4       1       2     180       1.900000         CONSTANT HEAD       1
       5       1       3       1       1.900000         CONSTANT HEAD       1
       6       1       3     180       1.900000         CONSTANT HEAD       1
       7       1       4       1       1.900000         CONSTANT HEAD       1
       8       1       4     180       1.900000         CONSTANT HEAD       1
       9       1       5       1       1.900000         CONSTANT HEAD       1
      10       1       5     180       1.900000         CONSTANT HEAD       1
      11       1       6       1       1.900000         CONSTANT HEAD       1
      12       1       6     180       1.900000         CONSTANT HEAD       1
      13       1       7       1       1.900000         CONSTANT HEAD       1
      14       1       7     180       1.900000         CONSTANT HEAD       1
      15       1       8       1       1.900000         CONSTANT HEAD       1
      16       1       8     180       1.900000         CONSTANT HEAD       1
      17       1       9       1       1.900000         CONSTANT HEAD       1
      18       1       9     180       1.900000         CONSTANT HEAD       1
      19       1      10       1       1.900000         CONSTANT HEAD       1
      20       1      10     180       1.900000         CONSTANT HEAD       1
      21       1      11       1       1.900000         CONSTANT HEAD       1
      22       1      11     180       1.900000         CONSTANT HEAD       1
      23       1      12       1       1.900000         CONSTANT HEAD       1
      24       1      12     180       1.900000         CONSTANT HEAD       1
      25       1      13       1       1.900000         CONSTANT HEAD       1
      26       1      13     180       1.900000         CONSTANT HEAD       1
      27       1      14       1       1.900000         CONSTANT HEAD       1
      28       1      14     180       1.900000         CONSTANT HEAD       1
      29       1      15       1       1.900000         CONSTANT HEAD       1
      30       1      15     180       1.900000         CONSTANT HEAD       1
      31       1      16       1       1.900000         CONSTANT HEAD       1
      32       1      16     180       1.900000         CONSTANT HEAD       1
      33       1      17       1       1.900000         CONSTANT HEAD       1
      34       1      17     180       1.900000         CONSTANT HEAD       1
      35       1      18       1       1.900000         CONSTANT HEAD       1
      36       1      18     180       1.900000         CONSTANT HEAD       1
      37       1      19       1       1.900000         CONSTANT HEAD       1
      38       1      19     180       1.900000         CONSTANT HEAD       1
      39       1      20       1       1.900000         CONSTANT HEAD       1
      40       1      20     180       1.900000         CONSTANT HEAD       1
      41       1      21       1       1.900000         CONSTANT HEAD       1
      42       1      21     180       1.900000         CONSTANT HEAD       1
      43       1      22       1       1.900000         CONSTANT HEAD       1
      44       1      22     180       1.900000         CONSTANT HEAD       1
      45       1      23       1       1.900000         CONSTANT HEAD       1
      46       1      23     180       1.900000         CONSTANT HEAD       1
      47       1      24       1       1.900000         CONSTANT HEAD       1
      48       1      24     180       1.900000         CONSTANT HEAD       1
      49       1      25       1       1.900000         CONSTANT HEAD       1
      50       1      25     180       1.900000         CONSTANT HEAD       1
      51       1      26       1       1.900000         CONSTANT HEAD       1
      52       1      26     180       1.900000         CONSTANT HEAD       1
      53       1      27       1       1.900000         CONSTANT HEAD       1
      54       1      27     180       1.900000         CONSTANT HEAD       1
      55       1      28       1       1.900000         CONSTANT HEAD       1
      56       1      28     180       1.900000         CONSTANT HEAD       1
      57       1      29       1       1.900000         CONSTANT HEAD       1
      58       1      29     180       1.900000         CONSTANT HEAD       1
      59       1      30       1       1.900000         CONSTANT HEAD       1
      60       1      30     180       1.900000         CONSTANT HEAD       1
      61       1      31       1       1.900000         CONSTANT HEAD       1
      62       1      31     180       1.900000         CONSTANT HEAD       1
      63       1      32       1       1.900000         CONSTANT HEAD       1
      64       1      32     180       1.900000         CONSTANT HEAD       1
      65       1      33       1       1.900000         CONSTANT HEAD       1
      66       1      33     180       1.900000         CONSTANT HEAD       1
      67       1      34       1       1.900000         CONSTANT HEAD       1
      68       1      34     180       1.900000         CONSTANT HEAD       1
      69       1      35       1       1.900000         CONSTANT HEAD       1
      70       1      35     180       1.900000         CONSTANT HEAD       1
      71       1      36       1       1.900000         CONSTANT HEAD       1
      72       1      36     180       1.900000         CONSTANT HEAD       1
      73       1      37       1       1.900000         CONSTANT HEAD       1
      74       1      37     180       1.900000         CONSTANT HEAD       1
      75       1      38       1       1.900000         CONSTANT HEAD       1
      76       1      38     180       1.900000         CONSTANT HEAD       1
      77       1      39       1       1.900000         CONSTANT HEAD       1
      78       1      39     180       1.900000         CONSTANT HEAD       1
      79       1      40       1       1.900000         CONSTANT HEAD       1
      80       1      40     180       1.900000         CONSTANT HEAD       1
      81       1      41       1       1.900000         CONSTANT HEAD       1
      82       1      41     180       1.900000         CONSTANT HEAD       1
      83       1      42       1       1.900000         CONSTANT HEAD       1
      84       1      42     180       1.900000         CONSTANT HEAD       1
      85       1      43       1       1.900000         CONSTANT HEAD       1
      86       1      43     180       1.900000         CONSTANT HEAD       1
      87       1      44       1       1.900000         CONSTANT HEAD       1
      88       1      44     180       1.900000         CONSTANT HEAD       1
      89       1      45       1       1.900000         CONSTANT HEAD       1
      90       1      45     180       1.900000         CONSTANT HEAD       1
      91       1      46       1       1.900000         CONSTANT HEAD       1
      92       1      46     180       1.900000         CONSTANT HEAD       1
      93       1      47       1       1.900000         CONSTANT HEAD       1
      94       1      47     180       1.900000         CONSTANT HEAD       1
      95       1      48       1       1.900000         CONSTANT HEAD       1
      96       1      48     180       1.900000         CONSTANT HEAD       1
      97       1      49       1       1.900000         CONSTANT HEAD       1
      98       1      49     180       1.900000         CONSTANT HEAD       1
      99       1      50       1       1.900000         CONSTANT HEAD       1
     100       1      50     180       1.900000         CONSTANT HEAD       1
     101       1      51       1       1.900000         CONSTANT HEAD       1
     102       1      51     180       1.900000         CONSTANT HEAD       1
     103       1      52       1       1.900000         CONSTANT HEAD       1
     104       1      52     180       1.900000         CONSTANT HEAD       1
     105       1      53       1       1.900000         CONSTANT HEAD       1
     106       1      53     180       1.900000         CONSTANT HEAD       1
     107       1      54       1       1.900000         CONSTANT HEAD       1
     108       1      54     180       1.900000         CONSTANT HEAD       1
     109       1      55       1       1.900000         CONSTANT HEAD       1
     110       1      55     180       1.900000         CONSTANT HEAD       1
     111       1      56       1       1.900000         CONSTANT HEAD       1
     112       1      56     180       1.900000         CONSTANT HEAD       1
     113       1      57       1       1.900000         CONSTANT HEAD       1
     114       1      57     180       1.900000         CONSTANT HEAD       1
     115       1      58       1       1.900000         CONSTANT HEAD       1
     116       1      58     180       1.900000         CONSTANT HEAD       1
     117       1      59       1       1.900000         CONSTANT HEAD       1
     118       1      59     180       1.900000         CONSTANT HEAD       1
     119       1      60       1       1.900000         CONSTANT HEAD       1
     120       1      60     180       1.900000         CONSTANT HEAD       1
     121       1      61       1       1.900000         CONSTANT HEAD       1
     122       1      61     180       1.900000         CONSTANT HEAD       1
     123       1      62       1       1.900000         CONSTANT HEAD       1
     124       1      62     180       1.900000         CONSTANT HEAD       1
     125       1      63       1       1.900000         CONSTANT HEAD       1
     126       1      63     180       1.900000         CONSTANT HEAD       1
     127       1      64       1       1.900000         CONSTANT HEAD       1
     128       1      64     180       1.900000         CONSTANT HEAD       1
     129       1      65       1       1.900000         CONSTANT HEAD       1
     130       1      65     180       1.900000         CONSTANT HEAD       1
     131       1      66       1       1.900000         CONSTANT HEAD       1
     132       1      66     180       1.900000         CONSTANT HEAD       1
     133       1      67       1       1.900000         CONSTANT HEAD       1
     134       1      67     180       1.900000         CONSTANT HEAD       1
     135       1      68       1       1.900000         CONSTANT HEAD       1
     136       1      68     180       1.900000         CONSTANT HEAD       1
     137       1      69       1       1.900000         CONSTANT HEAD       1
     138       1      69     180       1.900000         CONSTANT HEAD       1
     139       1      70       1       1.900000         CONSTANT HEAD       1
     140       1      70     180       1.900000         CONSTANT HEAD       1
     141       1      71       1       1.900000         CONSTANT HEAD       1
     142       1      71     180       1.900000         CONSTANT HEAD       1
     143       1      72       1       1.900000         CONSTANT HEAD       1
     144       1      72     180       1.900000         CONSTANT HEAD       1
     145       1      73       1       1.900000         CONSTANT HEAD       1
     146       1      73     180       1.900000         CONSTANT HEAD       1
     147       1      74       1       1.900000         CONSTANT HEAD       1
     148       1      74     180       1.900000         CONSTANT HEAD       1
     149       1      75       1       1.900000         CONSTANT HEAD       1
     150       1      75     180       1.900000         CONSTANT HEAD       1
     151       1      76       1       1.900000         CONSTANT HEAD       1
     152       1      76     180       1.900000         CONSTANT HEAD       1
     153       1      77       1       1.900000         CONSTANT HEAD       1
     154       1      77     180       1.900000         CONSTANT HEAD       1
     155       1      78       1       1.900000         CONSTANT HEAD       1
     156       1      78     180       1.900000         CONSTANT HEAD       1
     157       1      79       1       1.900000         CONSTANT HEAD       1
     158       1      79     180       1.900000         CONSTANT HEAD       1
     159       1      80       1       1.900000         CONSTANT HEAD       1
     160       1      80     180       1.900000         CONSTANT HEAD       1
     161       1      81       1       1.900000         CONSTANT HEAD       1
     162       1      81     180       1.900000         CONSTANT HEAD       1
     163       1      82       1       1.900000         CONSTANT HEAD       1
     164       1      82     180       1.900000         CONSTANT HEAD       1
     165       1      83       1       1.900000         CONSTANT HEAD       1
     166       1      83     180       1.900000         CONSTANT HEAD       1
     167       1      84       1       1.900000         CONSTANT HEAD       1
     168       1      84     180       1.900000         CONSTANT HEAD       1
     169       1      85       1       1.900000         CONSTANT HEAD       1
     170       1      85     180       1.900000         CONSTANT HEAD       1
     171       1      86       1       1.900000         CONSTANT HEAD       1
     172       1      86     180       1.900000         CONSTANT HEAD       1
     173       1      87       1       1.900000         CONSTANT HEAD       1
     174       1      87     180       1.900000         CONSTANT HEAD       1
     175       1      88       1       1.900000         CONSTANT HEAD       1
     176       1      88     180       1.900000         CONSTANT HEAD       1
     177       1      89       1       1.900000         CONSTANT HEAD       1
     178       1      89     180       1.900000         CONSTANT HEAD       1
     179       1      90       1       1.900000         CONSTANT HEAD       1
     180       1      90     180       1.900000         CONSTANT HEAD       1
     181       1      91       1       1.900000         CONSTANT HEAD       1
     182       1      91     180       1.900000         CONSTANT HEAD       1
     183       1      92       1       1.900000         CONSTANT HEAD       1
     184       1      92     180       1.900000         CONSTANT HEAD       1
     185       1      93       1       1.900000         CONSTANT HEAD       1
     186       1      93     180       1.900000         CONSTANT HEAD       1
     187       1      94       1       1.900000         CONSTANT HEAD       1
     188       1      94     180       1.900000         CONSTANT HEAD       1
     189       1      95       1       1.900000         CONSTANT HEAD       1
     190       1      95     180       1.900000         CONSTANT HEAD       1
     191       1      96       1       1.900000         CONSTANT HEAD       1
     192       1      96     180       1.900000         CONSTANT HEAD       1
     193       1      97       1       1.900000         CONSTANT HEAD       1
     194       1      97     180       1.900000         CONSTANT HEAD       1
     195       1      98       1       1.900000         CONSTANT HEAD       1
     196       1      98     180       1.900000         CONSTANT HEAD       1
     197       1      99       1       1.900000         CONSTANT HEAD       1
     198       1      99     180       1.900000         CONSTANT HEAD       1
     199       1     100       1       1.900000         CONSTANT HEAD       1
     200       1     100     180       1.900000         CONSTANT HEAD       1
     201       1     101       1       1.900000         CONSTANT HEAD       1
     202       1     101     180       1.900000         CONSTANT HEAD       1
     203       1     102       1       1.900000         CONSTANT HEAD       1
     204       1     102     180       1.900000         CONSTANT HEAD       1
     205       1     103       1       1.900000         CONSTANT HEAD       1
     206       1     103     180       1.900000         CONSTANT HEAD       1
     207       1     104       1       1.900000         CONSTANT HEAD       1
     208       1     104     180       1.900000         CONSTANT HEAD       1
     209       1     105       1       1.900000         CONSTANT HEAD       1
     210       1     105     180       1.900000         CONSTANT HEAD       1
     211       1     106       1       1.900000         CONSTANT HEAD       1
     212       1     106     180       1.900000         CONSTANT HEAD       1
     213       1     107       1       1.900000         CONSTANT HEAD       1
     214       1     107     180       1.900000         CONSTANT HEAD       1
     215       1     108       1       1.900000         CONSTANT HEAD       1
     216       1     108     180       1.900000         CONSTANT HEAD       1
     217       1     109       1       1.900000         CONSTANT HEAD       1
     218       1     109     180       1.900000         CONSTANT HEAD       1
     219       1     110       1       1.900000         CONSTANT HEAD       1
     220       1     110     180       1.900000         CONSTANT HEAD       1
     221       1     111       1       1.900000         CONSTANT HEAD       1
     222       1     111     180       1.900000         CONSTANT HEAD       1
     223       1     112       1       1.900000         CONSTANT HEAD       1
     224       1     112     180       1.900000         CONSTANT HEAD       1
     225       1     113       1       1.900000         CONSTANT HEAD       1
     226       1     113     180       1.900000         CONSTANT HEAD       1
     227       1     114       1       1.900000         CONSTANT HEAD       1
     228       1     114     180       1.900000         CONSTANT HEAD       1
     229       1     115       1       1.900000         CONSTANT HEAD       1
     230       1     115     180       1.900000         CONSTANT HEAD       1
     231       1     116       1       1.900000         CONSTANT HEAD       1
     232       1     116     180       1.900000         CONSTANT HEAD       1
     233       1     117       1       1.900000         CONSTANT HEAD       1
     234       1     117     180       1.900000         CONSTANT HEAD       1
     235       1     118       1       1.900000         CONSTANT HEAD       1
     236       1     118     180       1.900000         CONSTANT HEAD       1
     237       1     119       1       1.900000         CONSTANT HEAD       1
     238       1     119     180       1.900000         CONSTANT HEAD       1
     239       1     120       1       1.900000         CONSTANT HEAD       1
     240       1     120     180       1.900000         CONSTANT HEAD       1
     241       1     121       1       1.900000         CONSTANT HEAD       1
     242       1     121     180       1.900000         CONSTANT HEAD       1
     243       1     122       1       1.900000         CONSTANT HEAD       1
     244       1     122     180       1.900000         CONSTANT HEAD       1
     245       1     123       1       1.900000         CONSTANT HEAD       1
     246       1     123     180       1.900000         CONSTANT HEAD       1
     247       1     124       1       1.900000         CONSTANT HEAD       1
     248       1     124     180       1.900000         CONSTANT HEAD       1
     249       1     125       1       1.900000         CONSTANT HEAD       1
     250       1     125     180       1.900000         CONSTANT HEAD       1
     251       1     126       1       1.900000         CONSTANT HEAD       1
     252       1     126     180       1.900000         CONSTANT HEAD       1
     253       1     127       1       1.900000         CONSTANT HEAD       1
     254       1     127     180       1.900000         CONSTANT HEAD       1
     255       1     128       1       1.900000         CONSTANT HEAD       1
     256       1     128     180       1.900000         CONSTANT HEAD       1
     257       1     129       1       1.900000         CONSTANT HEAD       1
     258       1     129     180       1.900000         CONSTANT HEAD       1
     259       1     130       1       1.900000         CONSTANT HEAD       1
     260       1     130     180       1.900000         CONSTANT HEAD       1
     261       1     131       1       1.900000         CONSTANT HEAD       1
     262       1     131     180       1.900000         CONSTANT HEAD       1
     263       1     132       1       1.900000         CONSTANT HEAD       1
     264       1     132     180       1.900000         CONSTANT HEAD       1
     265       1     133       1       1.900000         CONSTANT HEAD       1
     266       1     133     180       1.900000         CONSTANT HEAD       1
     267       1     134       1       1.900000         CONSTANT HEAD       1
     268       1     134     180       1.900000         CONSTANT HEAD       1
     269       1     135       1       1.900000         CONSTANT HEAD       1
     270       1     135     180       1.900000         CONSTANT HEAD       1
     271       1     136       1       1.900000         CONSTANT HEAD       1
     272       1     136     180       1.900000         CONSTANT HEAD       1
     273       1     137       1       1.900000         CONSTANT HEAD       1
     274       1     137     180       1.900000         CONSTANT HEAD       1
     275       1     138       1       1.900000         CONSTANT HEAD       1
     276       1     138     180       1.900000         CONSTANT HEAD       1
     277       1     139       1       1.900000         CONSTANT HEAD       1
     278       1     139     180       1.900000         CONSTANT HEAD       1
     279       1     140       1       1.900000         CONSTANT HEAD       1
     280       1     140     180       1.900000         CONSTANT HEAD       1
     281       1     141       1       1.900000         CONSTANT HEAD       1
     282       1     141     180       1.900000         CONSTANT HEAD       1
     283       1     142       1       1.900000         CONSTANT HEAD       1
     284       1     142     180       1.900000         CONSTANT HEAD       1
     285       1     143       1       1.900000         CONSTANT HEAD       1
     286       1     143     180       1.900000         CONSTANT HEAD       1
     287       1     144       1       1.900000         CONSTANT HEAD       1
     288       1     144     180       1.900000         CONSTANT HEAD       1
     289       1     145       1       1.900000         CONSTANT HEAD       1
     290       1     145     180       1.900000         CONSTANT HEAD       1
     291       1     146       1       1.900000         CONSTANT HEAD       1
     292       1     146     180       1.900000         CONSTANT HEAD       1
     293       1     147       1       1.900000         CONSTANT HEAD       1
     294       1     147     180       1.900000         CONSTANT HEAD       1
     295       1     148       1       1.900000         CONSTANT HEAD       1
     296       1     148     180       1.900000         CONSTANT HEAD       1
     297       1     149       1       1.900000         CONSTANT HEAD       1
     298       1     149     180       1.900000         CONSTANT HEAD       1
     299       1     150       1       1.900000         CONSTANT HEAD       1
     300       1     150     180       1.900000         CONSTANT HEAD       1
     301       1     151       1       1.900000         CONSTANT HEAD       1
     302       1     151     180       1.900000         CONSTANT HEAD       1
     303       1     152       1       1.900000         CONSTANT HEAD       1
     304       1     152     180       1.900000         CONSTANT HEAD       1
     305       1     153       1       1.900000         CONSTANT HEAD       1
     306       1     153     180       1.900000         CONSTANT HEAD       1
     307       1     154       1       1.900000         CONSTANT HEAD       1
     308       1     154     180       1.900000         CONSTANT HEAD       1
     309       1     155       1       1.900000         CONSTANT HEAD       1
     310       1     155     180       1.900000         CONSTANT HEAD       1
     311       1     156       1       1.900000         CONSTANT HEAD       1
     312       1     156     180       1.900000         CONSTANT HEAD       1
     313       1     157       1       1.900000         CONSTANT HEAD       1
     314       1     157     180       1.900000         CONSTANT HEAD       1
     315       1     158       1       1.900000         CONSTANT HEAD       1
     316       1     158     180       1.900000         CONSTANT HEAD       1
     317       1     159       1       1.900000         CONSTANT HEAD       1
     318       1     159     180       1.900000         CONSTANT HEAD       1
     319       1     160       1       1.900000         CONSTANT HEAD       1
     320       1     160     180       1.900000         CONSTANT HEAD       1
     321       1     161       1       1.900000         CONSTANT HEAD       1
     322       1     161     180       1.900000         CONSTANT HEAD       1
     323       1     162       1       1.900000         CONSTANT HEAD       1
     324       1     162     180       1.900000         CONSTANT HEAD       1
     325       1     163       1       1.900000         CONSTANT HEAD       1
     326       1     163     180       1.900000         CONSTANT HEAD       1
     327       1     164       1       1.900000         CONSTANT HEAD       1
     328       1     164     180       1.900000         CONSTANT HEAD       1
     329       1     165       1       1.900000         CONSTANT HEAD       1
     330       1     165     180       1.900000         CONSTANT HEAD       1
     331       1     166       1       1.900000         CONSTANT HEAD       1
     332       1     166     180       1.900000         CONSTANT HEAD       1
     333       1     167       1       1.900000         CONSTANT HEAD       1
     334       1     167     180       1.900000         CONSTANT HEAD       1
     335       1     168       1       1.900000         CONSTANT HEAD       1
     336       1     168     180       1.900000         CONSTANT HEAD       1
     337       1     169       1       1.900000         CONSTANT HEAD       1
     338       1     169     180       1.900000         CONSTANT HEAD       1
     339       1     170       1       1.900000         CONSTANT HEAD       1
     340       1     170     180       1.900000         CONSTANT HEAD       1
     341       1     171       1       1.900000         CONSTANT HEAD       1
     342       1     171     180       1.900000         CONSTANT HEAD       1
     343       1     172       1       1.900000         CONSTANT HEAD       1
     344       1     172     180       1.900000         CONSTANT HEAD       1
     345       1     173       1       1.900000         CONSTANT HEAD       1
     346       1     173     180       1.900000         CONSTANT HEAD       1
     347       1     174       1       1.900000         CONSTANT HEAD       1
     348       1     174     180       1.900000         CONSTANT HEAD       1
     349       1     175       1       1.900000         CONSTANT HEAD       1
     350       1     175     180       1.900000         CONSTANT HEAD       1
     351       1     176       1       1.900000         CONSTANT HEAD       1
     352       1     176     180       1.900000         CONSTANT HEAD       1
     353       1     177       1       1.900000         CONSTANT HEAD       1
     354       1     177     180       1.900000         CONSTANT HEAD       1
     355       1     178       1       1.900000         CONSTANT HEAD       1
     356       1     178     180       1.900000         CONSTANT HEAD       1
     357       1     179       1       1.900000         CONSTANT HEAD       1
     358       1     179     180       1.900000         CONSTANT HEAD       1
     359       1     180       1       1.900000         CONSTANT HEAD       1
     360       1     180     180       1.900000         CONSTANT HEAD       1
     361       1      91      91      0.1500000         WELL                1


                                          ================================================
                                                         TIME STEP NO.  001
                                          ================================================

 FROM TIME =   420.00     TO    450.00    


                    "THKSAT          " FLOW TERMS FOR TIME STEP  1, STRESS PERIOD 15 READ UNFORMATTED ON UNIT 10
                    --------------------------------------------------------------------------------------------

                    "QXX             " FLOW TERMS FOR TIME STEP  1, STRESS PERIOD 15 READ UNFORMATTED ON UNIT 10
                    --------------------------------------------------------------------------------------------

                    "QYY             " FLOW TERMS FOR TIME STEP  1, STRESS PERIOD 15 READ UNFORMATTED ON UNIT 10
                    --------------------------------------------------------------------------------------------

                    "STO             " FLOW TERMS FOR TIME STEP  1, STRESS PERIOD 15 READ UNFORMATTED ON UNIT 10
                    --------------------------------------------------------------------------------------------

 MAXIMUM STEPSIZE DURING WHICH ANY PARTICLE CANNOT MOVE MORE THAN ONE CELL
 =  1.608    (WHEN MIN. R.F.=1)  AT K=   1, I=  91, J=  92

 MAXIMUM STEPSIZE WHICH MEETS STABILITY CRITERION OF THE ADVECTION TERM
 (FOR PURE FINITE-DIFFERENCE OPTION, MIXELM=0) 
 = 0.5856    (WHEN MIN. R.F.=1)  AT K=   1, I=  91, J=  91

                    "CNH             " FLOW TERMS FOR TIME STEP  1, STRESS PERIOD 15 READ UNFORMATTED ON UNIT 10
                    --------------------------------------------------------------------------------------------

                    "WEL             " FLOW TERMS FOR TIME STEP  1, STRESS PERIOD 15 READ UNFORMATTED ON UNIT 10
                    --------------------------------------------------------------------------------------------


 TOTAL NUMBER OF POINT SOURCES/SINKS PRESENT IN THE FLOW MODEL =   361

 MAXIMUM STEPSIZE WHICH MEETS STABILITY CRITERION OF THE SINK & SOURCE TERM
 = 0.6398E+05(WHEN MIN. R.F.=1)  AT K=   1, I=   1, J= 180

 MAXIMUM STEPSIZE WHICH MEETS STABILITY CRITERION OF THE DISPERSION TERM
 = 0.2928    (WHEN MIN. R.F.=1)  AT K=   1, I=  91, J=  91


     1 CALLS TO GCG PACKAGE FOR TRANSPORT TIME STEP     1 IN FLOW TIME STEP     1 STRESS PERIOD    15
      8 TOTAL ITERATIONS
  MAXIMUM CONCENTRATION CHANGES FOR EACH ITERATION:
  MAX. CHANGE LAYER,ROW,COL MAX. CHANGE LAYER,ROW,COL MAX. CHANGE LAYER,ROW,COL MAX. CHANGE LAYER,ROW,COL MAX. CHANGE LAYER,ROW,COL
 ------------------------------------------------------------------------------------------------------------------------------------
   0.9495E-01 (  1, 89, 93)  0.3035E-02 (  1, 93, 91)  0.2152E-02 (  1, 92, 91)  0.1299E-02 (  1, 93, 91)  0.8377E-04 (  1, 92, 91)
   0.2113E-04 (  1, 90, 93)  0.1210E-04 (  1, 90, 93)  0.8941E-06 (  1, 91, 91)



 >>>>>>>>>>>>>>>>>>>>>>>>>>>>>>>>>>>>>>>>>>>>>>>>>>>>>>>FOR COMPONENT NO. 01<<<<<<<<<<<<<<<<<<<<<<<<<<<<<<<<<<<<<<<<<<<<<<<<<<<<<<<


                                            -------------------------------------------
                                                      TRANSPORT STEP NO.    1
                                            -------------------------------------------

 TOTAL ELAPSED TIME SINCE BEGINNING OF SIMULATION =   450.0000    D   
 .....................................................................

                     CUMULATIVE MASS BUDGETS AT END OF TRANSPORT STEP    1, TIME STEP    1, STRESS PERIOD   15
                     -----------------------------------------------------------------------------------------

                                                             IN                           OUT
                                                      ----------------             ----------------
                               CONSTANT CONCENTRATION:    0.000000                    0.000000    
                                        CONSTANT HEAD:    3233451.                   -3354890.    
                                                WELLS:    67187.48                   -160433.1    
                               MASS STOR (FLOW MODEL):    2893120.                   -3045521.    
                                MASS STORAGE (SOLUTE):    777643.9                   -410023.4    
                            ---------------------------------------------------------------------------
                                              [TOTAL]:    6971402.     KG            -6970868.     KG  

                                                          NET (IN - OUT):    534.5000    
                                                   DISCREPANCY (PERCENT):   0.7667331E-02


                                   ++++++++++++++++++++++++++++++++++++++++++++++++++++++++++++++
                                                       STRESS PERIOD NO.  016
                                   ++++++++++++++++++++++++++++++++++++++++++++++++++++++++++++++


 LENGTH OF CURRENT STRESS PERIOD =   30.00000    
 NUMBER OF TIME STEPS FOR CURRENT STRESS PERIOD =    1
 TIME STEP MULTIPLIER USED IN FLOW SOLUTION =   1.000000    

 ***Type of Transport Simulation is TRANSIENT

 USER-SPECIFIED TRANSPORT STEPSIZE =   30.00000    D   
 MAXIMUM NUMBER OF TRANSPORT STEPS ALLOWED  IN ONE FLOW TIME STEP =     50000
 MULTIPLIER FOR SUCCESSIVE TRANSPORT STEPS  [USED IN IMPLICIT SCHEMES] =     1.000
 MAXIMUM TRANSPORT STEP SIZE  [USED IN IMPLICIT SCHEMES] =   0.000000    D   

       NO    LAYER   ROW   COLUMN   CONCENTRATION       TYPE            COMPONENT
       1       1       1       1       1.900000         CONSTANT HEAD       1
       2       1       1     180       1.900000         CONSTANT HEAD       1
       3       1       2       1       1.900000         CONSTANT HEAD       1
       4       1       2     180       1.900000         CONSTANT HEAD       1
       5       1       3       1       1.900000         CONSTANT HEAD       1
       6       1       3     180       1.900000         CONSTANT HEAD       1
       7       1       4       1       1.900000         CONSTANT HEAD       1
       8       1       4     180       1.900000         CONSTANT HEAD       1
       9       1       5       1       1.900000         CONSTANT HEAD       1
      10       1       5     180       1.900000         CONSTANT HEAD       1
      11       1       6       1       1.900000         CONSTANT HEAD       1
      12       1       6     180       1.900000         CONSTANT HEAD       1
      13       1       7       1       1.900000         CONSTANT HEAD       1
      14       1       7     180       1.900000         CONSTANT HEAD       1
      15       1       8       1       1.900000         CONSTANT HEAD       1
      16       1       8     180       1.900000         CONSTANT HEAD       1
      17       1       9       1       1.900000         CONSTANT HEAD       1
      18       1       9     180       1.900000         CONSTANT HEAD       1
      19       1      10       1       1.900000         CONSTANT HEAD       1
      20       1      10     180       1.900000         CONSTANT HEAD       1
      21       1      11       1       1.900000         CONSTANT HEAD       1
      22       1      11     180       1.900000         CONSTANT HEAD       1
      23       1      12       1       1.900000         CONSTANT HEAD       1
      24       1      12     180       1.900000         CONSTANT HEAD       1
      25       1      13       1       1.900000         CONSTANT HEAD       1
      26       1      13     180       1.900000         CONSTANT HEAD       1
      27       1      14       1       1.900000         CONSTANT HEAD       1
      28       1      14     180       1.900000         CONSTANT HEAD       1
      29       1      15       1       1.900000         CONSTANT HEAD       1
      30       1      15     180       1.900000         CONSTANT HEAD       1
      31       1      16       1       1.900000         CONSTANT HEAD       1
      32       1      16     180       1.900000         CONSTANT HEAD       1
      33       1      17       1       1.900000         CONSTANT HEAD       1
      34       1      17     180       1.900000         CONSTANT HEAD       1
      35       1      18       1       1.900000         CONSTANT HEAD       1
      36       1      18     180       1.900000         CONSTANT HEAD       1
      37       1      19       1       1.900000         CONSTANT HEAD       1
      38       1      19     180       1.900000         CONSTANT HEAD       1
      39       1      20       1       1.900000         CONSTANT HEAD       1
      40       1      20     180       1.900000         CONSTANT HEAD       1
      41       1      21       1       1.900000         CONSTANT HEAD       1
      42       1      21     180       1.900000         CONSTANT HEAD       1
      43       1      22       1       1.900000         CONSTANT HEAD       1
      44       1      22     180       1.900000         CONSTANT HEAD       1
      45       1      23       1       1.900000         CONSTANT HEAD       1
      46       1      23     180       1.900000         CONSTANT HEAD       1
      47       1      24       1       1.900000         CONSTANT HEAD       1
      48       1      24     180       1.900000         CONSTANT HEAD       1
      49       1      25       1       1.900000         CONSTANT HEAD       1
      50       1      25     180       1.900000         CONSTANT HEAD       1
      51       1      26       1       1.900000         CONSTANT HEAD       1
      52       1      26     180       1.900000         CONSTANT HEAD       1
      53       1      27       1       1.900000         CONSTANT HEAD       1
      54       1      27     180       1.900000         CONSTANT HEAD       1
      55       1      28       1       1.900000         CONSTANT HEAD       1
      56       1      28     180       1.900000         CONSTANT HEAD       1
      57       1      29       1       1.900000         CONSTANT HEAD       1
      58       1      29     180       1.900000         CONSTANT HEAD       1
      59       1      30       1       1.900000         CONSTANT HEAD       1
      60       1      30     180       1.900000         CONSTANT HEAD       1
      61       1      31       1       1.900000         CONSTANT HEAD       1
      62       1      31     180       1.900000         CONSTANT HEAD       1
      63       1      32       1       1.900000         CONSTANT HEAD       1
      64       1      32     180       1.900000         CONSTANT HEAD       1
      65       1      33       1       1.900000         CONSTANT HEAD       1
      66       1      33     180       1.900000         CONSTANT HEAD       1
      67       1      34       1       1.900000         CONSTANT HEAD       1
      68       1      34     180       1.900000         CONSTANT HEAD       1
      69       1      35       1       1.900000         CONSTANT HEAD       1
      70       1      35     180       1.900000         CONSTANT HEAD       1
      71       1      36       1       1.900000         CONSTANT HEAD       1
      72       1      36     180       1.900000         CONSTANT HEAD       1
      73       1      37       1       1.900000         CONSTANT HEAD       1
      74       1      37     180       1.900000         CONSTANT HEAD       1
      75       1      38       1       1.900000         CONSTANT HEAD       1
      76       1      38     180       1.900000         CONSTANT HEAD       1
      77       1      39       1       1.900000         CONSTANT HEAD       1
      78       1      39     180       1.900000         CONSTANT HEAD       1
      79       1      40       1       1.900000         CONSTANT HEAD       1
      80       1      40     180       1.900000         CONSTANT HEAD       1
      81       1      41       1       1.900000         CONSTANT HEAD       1
      82       1      41     180       1.900000         CONSTANT HEAD       1
      83       1      42       1       1.900000         CONSTANT HEAD       1
      84       1      42     180       1.900000         CONSTANT HEAD       1
      85       1      43       1       1.900000         CONSTANT HEAD       1
      86       1      43     180       1.900000         CONSTANT HEAD       1
      87       1      44       1       1.900000         CONSTANT HEAD       1
      88       1      44     180       1.900000         CONSTANT HEAD       1
      89       1      45       1       1.900000         CONSTANT HEAD       1
      90       1      45     180       1.900000         CONSTANT HEAD       1
      91       1      46       1       1.900000         CONSTANT HEAD       1
      92       1      46     180       1.900000         CONSTANT HEAD       1
      93       1      47       1       1.900000         CONSTANT HEAD       1
      94       1      47     180       1.900000         CONSTANT HEAD       1
      95       1      48       1       1.900000         CONSTANT HEAD       1
      96       1      48     180       1.900000         CONSTANT HEAD       1
      97       1      49       1       1.900000         CONSTANT HEAD       1
      98       1      49     180       1.900000         CONSTANT HEAD       1
      99       1      50       1       1.900000         CONSTANT HEAD       1
     100       1      50     180       1.900000         CONSTANT HEAD       1
     101       1      51       1       1.900000         CONSTANT HEAD       1
     102       1      51     180       1.900000         CONSTANT HEAD       1
     103       1      52       1       1.900000         CONSTANT HEAD       1
     104       1      52     180       1.900000         CONSTANT HEAD       1
     105       1      53       1       1.900000         CONSTANT HEAD       1
     106       1      53     180       1.900000         CONSTANT HEAD       1
     107       1      54       1       1.900000         CONSTANT HEAD       1
     108       1      54     180       1.900000         CONSTANT HEAD       1
     109       1      55       1       1.900000         CONSTANT HEAD       1
     110       1      55     180       1.900000         CONSTANT HEAD       1
     111       1      56       1       1.900000         CONSTANT HEAD       1
     112       1      56     180       1.900000         CONSTANT HEAD       1
     113       1      57       1       1.900000         CONSTANT HEAD       1
     114       1      57     180       1.900000         CONSTANT HEAD       1
     115       1      58       1       1.900000         CONSTANT HEAD       1
     116       1      58     180       1.900000         CONSTANT HEAD       1
     117       1      59       1       1.900000         CONSTANT HEAD       1
     118       1      59     180       1.900000         CONSTANT HEAD       1
     119       1      60       1       1.900000         CONSTANT HEAD       1
     120       1      60     180       1.900000         CONSTANT HEAD       1
     121       1      61       1       1.900000         CONSTANT HEAD       1
     122       1      61     180       1.900000         CONSTANT HEAD       1
     123       1      62       1       1.900000         CONSTANT HEAD       1
     124       1      62     180       1.900000         CONSTANT HEAD       1
     125       1      63       1       1.900000         CONSTANT HEAD       1
     126       1      63     180       1.900000         CONSTANT HEAD       1
     127       1      64       1       1.900000         CONSTANT HEAD       1
     128       1      64     180       1.900000         CONSTANT HEAD       1
     129       1      65       1       1.900000         CONSTANT HEAD       1
     130       1      65     180       1.900000         CONSTANT HEAD       1
     131       1      66       1       1.900000         CONSTANT HEAD       1
     132       1      66     180       1.900000         CONSTANT HEAD       1
     133       1      67       1       1.900000         CONSTANT HEAD       1
     134       1      67     180       1.900000         CONSTANT HEAD       1
     135       1      68       1       1.900000         CONSTANT HEAD       1
     136       1      68     180       1.900000         CONSTANT HEAD       1
     137       1      69       1       1.900000         CONSTANT HEAD       1
     138       1      69     180       1.900000         CONSTANT HEAD       1
     139       1      70       1       1.900000         CONSTANT HEAD       1
     140       1      70     180       1.900000         CONSTANT HEAD       1
     141       1      71       1       1.900000         CONSTANT HEAD       1
     142       1      71     180       1.900000         CONSTANT HEAD       1
     143       1      72       1       1.900000         CONSTANT HEAD       1
     144       1      72     180       1.900000         CONSTANT HEAD       1
     145       1      73       1       1.900000         CONSTANT HEAD       1
     146       1      73     180       1.900000         CONSTANT HEAD       1
     147       1      74       1       1.900000         CONSTANT HEAD       1
     148       1      74     180       1.900000         CONSTANT HEAD       1
     149       1      75       1       1.900000         CONSTANT HEAD       1
     150       1      75     180       1.900000         CONSTANT HEAD       1
     151       1      76       1       1.900000         CONSTANT HEAD       1
     152       1      76     180       1.900000         CONSTANT HEAD       1
     153       1      77       1       1.900000         CONSTANT HEAD       1
     154       1      77     180       1.900000         CONSTANT HEAD       1
     155       1      78       1       1.900000         CONSTANT HEAD       1
     156       1      78     180       1.900000         CONSTANT HEAD       1
     157       1      79       1       1.900000         CONSTANT HEAD       1
     158       1      79     180       1.900000         CONSTANT HEAD       1
     159       1      80       1       1.900000         CONSTANT HEAD       1
     160       1      80     180       1.900000         CONSTANT HEAD       1
     161       1      81       1       1.900000         CONSTANT HEAD       1
     162       1      81     180       1.900000         CONSTANT HEAD       1
     163       1      82       1       1.900000         CONSTANT HEAD       1
     164       1      82     180       1.900000         CONSTANT HEAD       1
     165       1      83       1       1.900000         CONSTANT HEAD       1
     166       1      83     180       1.900000         CONSTANT HEAD       1
     167       1      84       1       1.900000         CONSTANT HEAD       1
     168       1      84     180       1.900000         CONSTANT HEAD       1
     169       1      85       1       1.900000         CONSTANT HEAD       1
     170       1      85     180       1.900000         CONSTANT HEAD       1
     171       1      86       1       1.900000         CONSTANT HEAD       1
     172       1      86     180       1.900000         CONSTANT HEAD       1
     173       1      87       1       1.900000         CONSTANT HEAD       1
     174       1      87     180       1.900000         CONSTANT HEAD       1
     175       1      88       1       1.900000         CONSTANT HEAD       1
     176       1      88     180       1.900000         CONSTANT HEAD       1
     177       1      89       1       1.900000         CONSTANT HEAD       1
     178       1      89     180       1.900000         CONSTANT HEAD       1
     179       1      90       1       1.900000         CONSTANT HEAD       1
     180       1      90     180       1.900000         CONSTANT HEAD       1
     181       1      91       1       1.900000         CONSTANT HEAD       1
     182       1      91     180       1.900000         CONSTANT HEAD       1
     183       1      92       1       1.900000         CONSTANT HEAD       1
     184       1      92     180       1.900000         CONSTANT HEAD       1
     185       1      93       1       1.900000         CONSTANT HEAD       1
     186       1      93     180       1.900000         CONSTANT HEAD       1
     187       1      94       1       1.900000         CONSTANT HEAD       1
     188       1      94     180       1.900000         CONSTANT HEAD       1
     189       1      95       1       1.900000         CONSTANT HEAD       1
     190       1      95     180       1.900000         CONSTANT HEAD       1
     191       1      96       1       1.900000         CONSTANT HEAD       1
     192       1      96     180       1.900000         CONSTANT HEAD       1
     193       1      97       1       1.900000         CONSTANT HEAD       1
     194       1      97     180       1.900000         CONSTANT HEAD       1
     195       1      98       1       1.900000         CONSTANT HEAD       1
     196       1      98     180       1.900000         CONSTANT HEAD       1
     197       1      99       1       1.900000         CONSTANT HEAD       1
     198       1      99     180       1.900000         CONSTANT HEAD       1
     199       1     100       1       1.900000         CONSTANT HEAD       1
     200       1     100     180       1.900000         CONSTANT HEAD       1
     201       1     101       1       1.900000         CONSTANT HEAD       1
     202       1     101     180       1.900000         CONSTANT HEAD       1
     203       1     102       1       1.900000         CONSTANT HEAD       1
     204       1     102     180       1.900000         CONSTANT HEAD       1
     205       1     103       1       1.900000         CONSTANT HEAD       1
     206       1     103     180       1.900000         CONSTANT HEAD       1
     207       1     104       1       1.900000         CONSTANT HEAD       1
     208       1     104     180       1.900000         CONSTANT HEAD       1
     209       1     105       1       1.900000         CONSTANT HEAD       1
     210       1     105     180       1.900000         CONSTANT HEAD       1
     211       1     106       1       1.900000         CONSTANT HEAD       1
     212       1     106     180       1.900000         CONSTANT HEAD       1
     213       1     107       1       1.900000         CONSTANT HEAD       1
     214       1     107     180       1.900000         CONSTANT HEAD       1
     215       1     108       1       1.900000         CONSTANT HEAD       1
     216       1     108     180       1.900000         CONSTANT HEAD       1
     217       1     109       1       1.900000         CONSTANT HEAD       1
     218       1     109     180       1.900000         CONSTANT HEAD       1
     219       1     110       1       1.900000         CONSTANT HEAD       1
     220       1     110     180       1.900000         CONSTANT HEAD       1
     221       1     111       1       1.900000         CONSTANT HEAD       1
     222       1     111     180       1.900000         CONSTANT HEAD       1
     223       1     112       1       1.900000         CONSTANT HEAD       1
     224       1     112     180       1.900000         CONSTANT HEAD       1
     225       1     113       1       1.900000         CONSTANT HEAD       1
     226       1     113     180       1.900000         CONSTANT HEAD       1
     227       1     114       1       1.900000         CONSTANT HEAD       1
     228       1     114     180       1.900000         CONSTANT HEAD       1
     229       1     115       1       1.900000         CONSTANT HEAD       1
     230       1     115     180       1.900000         CONSTANT HEAD       1
     231       1     116       1       1.900000         CONSTANT HEAD       1
     232       1     116     180       1.900000         CONSTANT HEAD       1
     233       1     117       1       1.900000         CONSTANT HEAD       1
     234       1     117     180       1.900000         CONSTANT HEAD       1
     235       1     118       1       1.900000         CONSTANT HEAD       1
     236       1     118     180       1.900000         CONSTANT HEAD       1
     237       1     119       1       1.900000         CONSTANT HEAD       1
     238       1     119     180       1.900000         CONSTANT HEAD       1
     239       1     120       1       1.900000         CONSTANT HEAD       1
     240       1     120     180       1.900000         CONSTANT HEAD       1
     241       1     121       1       1.900000         CONSTANT HEAD       1
     242       1     121     180       1.900000         CONSTANT HEAD       1
     243       1     122       1       1.900000         CONSTANT HEAD       1
     244       1     122     180       1.900000         CONSTANT HEAD       1
     245       1     123       1       1.900000         CONSTANT HEAD       1
     246       1     123     180       1.900000         CONSTANT HEAD       1
     247       1     124       1       1.900000         CONSTANT HEAD       1
     248       1     124     180       1.900000         CONSTANT HEAD       1
     249       1     125       1       1.900000         CONSTANT HEAD       1
     250       1     125     180       1.900000         CONSTANT HEAD       1
     251       1     126       1       1.900000         CONSTANT HEAD       1
     252       1     126     180       1.900000         CONSTANT HEAD       1
     253       1     127       1       1.900000         CONSTANT HEAD       1
     254       1     127     180       1.900000         CONSTANT HEAD       1
     255       1     128       1       1.900000         CONSTANT HEAD       1
     256       1     128     180       1.900000         CONSTANT HEAD       1
     257       1     129       1       1.900000         CONSTANT HEAD       1
     258       1     129     180       1.900000         CONSTANT HEAD       1
     259       1     130       1       1.900000         CONSTANT HEAD       1
     260       1     130     180       1.900000         CONSTANT HEAD       1
     261       1     131       1       1.900000         CONSTANT HEAD       1
     262       1     131     180       1.900000         CONSTANT HEAD       1
     263       1     132       1       1.900000         CONSTANT HEAD       1
     264       1     132     180       1.900000         CONSTANT HEAD       1
     265       1     133       1       1.900000         CONSTANT HEAD       1
     266       1     133     180       1.900000         CONSTANT HEAD       1
     267       1     134       1       1.900000         CONSTANT HEAD       1
     268       1     134     180       1.900000         CONSTANT HEAD       1
     269       1     135       1       1.900000         CONSTANT HEAD       1
     270       1     135     180       1.900000         CONSTANT HEAD       1
     271       1     136       1       1.900000         CONSTANT HEAD       1
     272       1     136     180       1.900000         CONSTANT HEAD       1
     273       1     137       1       1.900000         CONSTANT HEAD       1
     274       1     137     180       1.900000         CONSTANT HEAD       1
     275       1     138       1       1.900000         CONSTANT HEAD       1
     276       1     138     180       1.900000         CONSTANT HEAD       1
     277       1     139       1       1.900000         CONSTANT HEAD       1
     278       1     139     180       1.900000         CONSTANT HEAD       1
     279       1     140       1       1.900000         CONSTANT HEAD       1
     280       1     140     180       1.900000         CONSTANT HEAD       1
     281       1     141       1       1.900000         CONSTANT HEAD       1
     282       1     141     180       1.900000         CONSTANT HEAD       1
     283       1     142       1       1.900000         CONSTANT HEAD       1
     284       1     142     180       1.900000         CONSTANT HEAD       1
     285       1     143       1       1.900000         CONSTANT HEAD       1
     286       1     143     180       1.900000         CONSTANT HEAD       1
     287       1     144       1       1.900000         CONSTANT HEAD       1
     288       1     144     180       1.900000         CONSTANT HEAD       1
     289       1     145       1       1.900000         CONSTANT HEAD       1
     290       1     145     180       1.900000         CONSTANT HEAD       1
     291       1     146       1       1.900000         CONSTANT HEAD       1
     292       1     146     180       1.900000         CONSTANT HEAD       1
     293       1     147       1       1.900000         CONSTANT HEAD       1
     294       1     147     180       1.900000         CONSTANT HEAD       1
     295       1     148       1       1.900000         CONSTANT HEAD       1
     296       1     148     180       1.900000         CONSTANT HEAD       1
     297       1     149       1       1.900000         CONSTANT HEAD       1
     298       1     149     180       1.900000         CONSTANT HEAD       1
     299       1     150       1       1.900000         CONSTANT HEAD       1
     300       1     150     180       1.900000         CONSTANT HEAD       1
     301       1     151       1       1.900000         CONSTANT HEAD       1
     302       1     151     180       1.900000         CONSTANT HEAD       1
     303       1     152       1       1.900000         CONSTANT HEAD       1
     304       1     152     180       1.900000         CONSTANT HEAD       1
     305       1     153       1       1.900000         CONSTANT HEAD       1
     306       1     153     180       1.900000         CONSTANT HEAD       1
     307       1     154       1       1.900000         CONSTANT HEAD       1
     308       1     154     180       1.900000         CONSTANT HEAD       1
     309       1     155       1       1.900000         CONSTANT HEAD       1
     310       1     155     180       1.900000         CONSTANT HEAD       1
     311       1     156       1       1.900000         CONSTANT HEAD       1
     312       1     156     180       1.900000         CONSTANT HEAD       1
     313       1     157       1       1.900000         CONSTANT HEAD       1
     314       1     157     180       1.900000         CONSTANT HEAD       1
     315       1     158       1       1.900000         CONSTANT HEAD       1
     316       1     158     180       1.900000         CONSTANT HEAD       1
     317       1     159       1       1.900000         CONSTANT HEAD       1
     318       1     159     180       1.900000         CONSTANT HEAD       1
     319       1     160       1       1.900000         CONSTANT HEAD       1
     320       1     160     180       1.900000         CONSTANT HEAD       1
     321       1     161       1       1.900000         CONSTANT HEAD       1
     322       1     161     180       1.900000         CONSTANT HEAD       1
     323       1     162       1       1.900000         CONSTANT HEAD       1
     324       1     162     180       1.900000         CONSTANT HEAD       1
     325       1     163       1       1.900000         CONSTANT HEAD       1
     326       1     163     180       1.900000         CONSTANT HEAD       1
     327       1     164       1       1.900000         CONSTANT HEAD       1
     328       1     164     180       1.900000         CONSTANT HEAD       1
     329       1     165       1       1.900000         CONSTANT HEAD       1
     330       1     165     180       1.900000         CONSTANT HEAD       1
     331       1     166       1       1.900000         CONSTANT HEAD       1
     332       1     166     180       1.900000         CONSTANT HEAD       1
     333       1     167       1       1.900000         CONSTANT HEAD       1
     334       1     167     180       1.900000         CONSTANT HEAD       1
     335       1     168       1       1.900000         CONSTANT HEAD       1
     336       1     168     180       1.900000         CONSTANT HEAD       1
     337       1     169       1       1.900000         CONSTANT HEAD       1
     338       1     169     180       1.900000         CONSTANT HEAD       1
     339       1     170       1       1.900000         CONSTANT HEAD       1
     340       1     170     180       1.900000         CONSTANT HEAD       1
     341       1     171       1       1.900000         CONSTANT HEAD       1
     342       1     171     180       1.900000         CONSTANT HEAD       1
     343       1     172       1       1.900000         CONSTANT HEAD       1
     344       1     172     180       1.900000         CONSTANT HEAD       1
     345       1     173       1       1.900000         CONSTANT HEAD       1
     346       1     173     180       1.900000         CONSTANT HEAD       1
     347       1     174       1       1.900000         CONSTANT HEAD       1
     348       1     174     180       1.900000         CONSTANT HEAD       1
     349       1     175       1       1.900000         CONSTANT HEAD       1
     350       1     175     180       1.900000         CONSTANT HEAD       1
     351       1     176       1       1.900000         CONSTANT HEAD       1
     352       1     176     180       1.900000         CONSTANT HEAD       1
     353       1     177       1       1.900000         CONSTANT HEAD       1
     354       1     177     180       1.900000         CONSTANT HEAD       1
     355       1     178       1       1.900000         CONSTANT HEAD       1
     356       1     178     180       1.900000         CONSTANT HEAD       1
     357       1     179       1       1.900000         CONSTANT HEAD       1
     358       1     179     180       1.900000         CONSTANT HEAD       1
     359       1     180       1       1.900000         CONSTANT HEAD       1
     360       1     180     180       1.900000         CONSTANT HEAD       1
     361       1      91      91      0.1500000         WELL                1


                                          ================================================
                                                         TIME STEP NO.  001
                                          ================================================

 FROM TIME =   450.00     TO    480.00    


                    "THKSAT          " FLOW TERMS FOR TIME STEP  1, STRESS PERIOD 16 READ UNFORMATTED ON UNIT 10
                    --------------------------------------------------------------------------------------------

                    "QXX             " FLOW TERMS FOR TIME STEP  1, STRESS PERIOD 16 READ UNFORMATTED ON UNIT 10
                    --------------------------------------------------------------------------------------------

                    "QYY             " FLOW TERMS FOR TIME STEP  1, STRESS PERIOD 16 READ UNFORMATTED ON UNIT 10
                    --------------------------------------------------------------------------------------------

                    "STO             " FLOW TERMS FOR TIME STEP  1, STRESS PERIOD 16 READ UNFORMATTED ON UNIT 10
                    --------------------------------------------------------------------------------------------

 MAXIMUM STEPSIZE DURING WHICH ANY PARTICLE CANNOT MOVE MORE THAN ONE CELL
 =  2.647    (WHEN MIN. R.F.=1)  AT K=   1, I=  91, J=  92

 MAXIMUM STEPSIZE WHICH MEETS STABILITY CRITERION OF THE ADVECTION TERM
 (FOR PURE FINITE-DIFFERENCE OPTION, MIXELM=0) 
 = 0.9658    (WHEN MIN. R.F.=1)  AT K=   1, I=  91, J=  91

                    "CNH             " FLOW TERMS FOR TIME STEP  1, STRESS PERIOD 16 READ UNFORMATTED ON UNIT 10
                    --------------------------------------------------------------------------------------------

                    "WEL             " FLOW TERMS FOR TIME STEP  1, STRESS PERIOD 16 READ UNFORMATTED ON UNIT 10
                    --------------------------------------------------------------------------------------------


 TOTAL NUMBER OF POINT SOURCES/SINKS PRESENT IN THE FLOW MODEL =   361

 MAXIMUM STEPSIZE WHICH MEETS STABILITY CRITERION OF THE SINK & SOURCE TERM
 = 0.6538E+05(WHEN MIN. R.F.=1)  AT K=   1, I=   1, J= 180

 MAXIMUM STEPSIZE WHICH MEETS STABILITY CRITERION OF THE DISPERSION TERM
 = 0.4829    (WHEN MIN. R.F.=1)  AT K=   1, I=  91, J=  91


     1 CALLS TO GCG PACKAGE FOR TRANSPORT TIME STEP     1 IN FLOW TIME STEP     1 STRESS PERIOD    16
      6 TOTAL ITERATIONS
  MAXIMUM CONCENTRATION CHANGES FOR EACH ITERATION:
  MAX. CHANGE LAYER,ROW,COL MAX. CHANGE LAYER,ROW,COL MAX. CHANGE LAYER,ROW,COL MAX. CHANGE LAYER,ROW,COL MAX. CHANGE LAYER,ROW,COL
 ------------------------------------------------------------------------------------------------------------------------------------
   0.5181E-01 (  1, 89, 93)  0.8910E-03 (  1, 87, 95)  0.6297E-04 (  1, 92, 91)  0.2157E-03 (  1, 90, 92)  0.3481E-04 (  1, 92, 91)
   0.7451E-06 (  1, 93, 93)



 >>>>>>>>>>>>>>>>>>>>>>>>>>>>>>>>>>>>>>>>>>>>>>>>>>>>>>>FOR COMPONENT NO. 01<<<<<<<<<<<<<<<<<<<<<<<<<<<<<<<<<<<<<<<<<<<<<<<<<<<<<<<


                                            -------------------------------------------
                                                      TRANSPORT STEP NO.    1
                                            -------------------------------------------

 TOTAL ELAPSED TIME SINCE BEGINNING OF SIMULATION =   480.0000    D   
 .....................................................................

                     CUMULATIVE MASS BUDGETS AT END OF TRANSPORT STEP    1, TIME STEP    1, STRESS PERIOD   16
                     -----------------------------------------------------------------------------------------

                                                             IN                           OUT
                                                      ----------------             ----------------
                               CONSTANT CONCENTRATION:    0.000000                    0.000000    
                                        CONSTANT HEAD:    3368948.                   -3500464.    
                                                WELLS:    67187.48                   -179014.9    
                               MASS STOR (FLOW MODEL):    2972546.                   -3068643.    
                                MASS STORAGE (SOLUTE):    777758.1                   -437723.0    
                            ---------------------------------------------------------------------------
                                              [TOTAL]:    7186440.     KG            -7185845.     KG  

                                                          NET (IN - OUT):    595.0000    
                                                   DISCREPANCY (PERCENT):   0.8279825E-02


                                   ++++++++++++++++++++++++++++++++++++++++++++++++++++++++++++++
                                                       STRESS PERIOD NO.  017
                                   ++++++++++++++++++++++++++++++++++++++++++++++++++++++++++++++


 LENGTH OF CURRENT STRESS PERIOD =   30.00000    
 NUMBER OF TIME STEPS FOR CURRENT STRESS PERIOD =    1
 TIME STEP MULTIPLIER USED IN FLOW SOLUTION =   1.000000    

 ***Type of Transport Simulation is TRANSIENT

 USER-SPECIFIED TRANSPORT STEPSIZE =   30.00000    D   
 MAXIMUM NUMBER OF TRANSPORT STEPS ALLOWED  IN ONE FLOW TIME STEP =     50000
 MULTIPLIER FOR SUCCESSIVE TRANSPORT STEPS  [USED IN IMPLICIT SCHEMES] =     1.000
 MAXIMUM TRANSPORT STEP SIZE  [USED IN IMPLICIT SCHEMES] =   0.000000    D   

       NO    LAYER   ROW   COLUMN   CONCENTRATION       TYPE            COMPONENT
       1       1       1       1       1.900000         CONSTANT HEAD       1
       2       1       1     180       1.900000         CONSTANT HEAD       1
       3       1       2       1       1.900000         CONSTANT HEAD       1
       4       1       2     180       1.900000         CONSTANT HEAD       1
       5       1       3       1       1.900000         CONSTANT HEAD       1
       6       1       3     180       1.900000         CONSTANT HEAD       1
       7       1       4       1       1.900000         CONSTANT HEAD       1
       8       1       4     180       1.900000         CONSTANT HEAD       1
       9       1       5       1       1.900000         CONSTANT HEAD       1
      10       1       5     180       1.900000         CONSTANT HEAD       1
      11       1       6       1       1.900000         CONSTANT HEAD       1
      12       1       6     180       1.900000         CONSTANT HEAD       1
      13       1       7       1       1.900000         CONSTANT HEAD       1
      14       1       7     180       1.900000         CONSTANT HEAD       1
      15       1       8       1       1.900000         CONSTANT HEAD       1
      16       1       8     180       1.900000         CONSTANT HEAD       1
      17       1       9       1       1.900000         CONSTANT HEAD       1
      18       1       9     180       1.900000         CONSTANT HEAD       1
      19       1      10       1       1.900000         CONSTANT HEAD       1
      20       1      10     180       1.900000         CONSTANT HEAD       1
      21       1      11       1       1.900000         CONSTANT HEAD       1
      22       1      11     180       1.900000         CONSTANT HEAD       1
      23       1      12       1       1.900000         CONSTANT HEAD       1
      24       1      12     180       1.900000         CONSTANT HEAD       1
      25       1      13       1       1.900000         CONSTANT HEAD       1
      26       1      13     180       1.900000         CONSTANT HEAD       1
      27       1      14       1       1.900000         CONSTANT HEAD       1
      28       1      14     180       1.900000         CONSTANT HEAD       1
      29       1      15       1       1.900000         CONSTANT HEAD       1
      30       1      15     180       1.900000         CONSTANT HEAD       1
      31       1      16       1       1.900000         CONSTANT HEAD       1
      32       1      16     180       1.900000         CONSTANT HEAD       1
      33       1      17       1       1.900000         CONSTANT HEAD       1
      34       1      17     180       1.900000         CONSTANT HEAD       1
      35       1      18       1       1.900000         CONSTANT HEAD       1
      36       1      18     180       1.900000         CONSTANT HEAD       1
      37       1      19       1       1.900000         CONSTANT HEAD       1
      38       1      19     180       1.900000         CONSTANT HEAD       1
      39       1      20       1       1.900000         CONSTANT HEAD       1
      40       1      20     180       1.900000         CONSTANT HEAD       1
      41       1      21       1       1.900000         CONSTANT HEAD       1
      42       1      21     180       1.900000         CONSTANT HEAD       1
      43       1      22       1       1.900000         CONSTANT HEAD       1
      44       1      22     180       1.900000         CONSTANT HEAD       1
      45       1      23       1       1.900000         CONSTANT HEAD       1
      46       1      23     180       1.900000         CONSTANT HEAD       1
      47       1      24       1       1.900000         CONSTANT HEAD       1
      48       1      24     180       1.900000         CONSTANT HEAD       1
      49       1      25       1       1.900000         CONSTANT HEAD       1
      50       1      25     180       1.900000         CONSTANT HEAD       1
      51       1      26       1       1.900000         CONSTANT HEAD       1
      52       1      26     180       1.900000         CONSTANT HEAD       1
      53       1      27       1       1.900000         CONSTANT HEAD       1
      54       1      27     180       1.900000         CONSTANT HEAD       1
      55       1      28       1       1.900000         CONSTANT HEAD       1
      56       1      28     180       1.900000         CONSTANT HEAD       1
      57       1      29       1       1.900000         CONSTANT HEAD       1
      58       1      29     180       1.900000         CONSTANT HEAD       1
      59       1      30       1       1.900000         CONSTANT HEAD       1
      60       1      30     180       1.900000         CONSTANT HEAD       1
      61       1      31       1       1.900000         CONSTANT HEAD       1
      62       1      31     180       1.900000         CONSTANT HEAD       1
      63       1      32       1       1.900000         CONSTANT HEAD       1
      64       1      32     180       1.900000         CONSTANT HEAD       1
      65       1      33       1       1.900000         CONSTANT HEAD       1
      66       1      33     180       1.900000         CONSTANT HEAD       1
      67       1      34       1       1.900000         CONSTANT HEAD       1
      68       1      34     180       1.900000         CONSTANT HEAD       1
      69       1      35       1       1.900000         CONSTANT HEAD       1
      70       1      35     180       1.900000         CONSTANT HEAD       1
      71       1      36       1       1.900000         CONSTANT HEAD       1
      72       1      36     180       1.900000         CONSTANT HEAD       1
      73       1      37       1       1.900000         CONSTANT HEAD       1
      74       1      37     180       1.900000         CONSTANT HEAD       1
      75       1      38       1       1.900000         CONSTANT HEAD       1
      76       1      38     180       1.900000         CONSTANT HEAD       1
      77       1      39       1       1.900000         CONSTANT HEAD       1
      78       1      39     180       1.900000         CONSTANT HEAD       1
      79       1      40       1       1.900000         CONSTANT HEAD       1
      80       1      40     180       1.900000         CONSTANT HEAD       1
      81       1      41       1       1.900000         CONSTANT HEAD       1
      82       1      41     180       1.900000         CONSTANT HEAD       1
      83       1      42       1       1.900000         CONSTANT HEAD       1
      84       1      42     180       1.900000         CONSTANT HEAD       1
      85       1      43       1       1.900000         CONSTANT HEAD       1
      86       1      43     180       1.900000         CONSTANT HEAD       1
      87       1      44       1       1.900000         CONSTANT HEAD       1
      88       1      44     180       1.900000         CONSTANT HEAD       1
      89       1      45       1       1.900000         CONSTANT HEAD       1
      90       1      45     180       1.900000         CONSTANT HEAD       1
      91       1      46       1       1.900000         CONSTANT HEAD       1
      92       1      46     180       1.900000         CONSTANT HEAD       1
      93       1      47       1       1.900000         CONSTANT HEAD       1
      94       1      47     180       1.900000         CONSTANT HEAD       1
      95       1      48       1       1.900000         CONSTANT HEAD       1
      96       1      48     180       1.900000         CONSTANT HEAD       1
      97       1      49       1       1.900000         CONSTANT HEAD       1
      98       1      49     180       1.900000         CONSTANT HEAD       1
      99       1      50       1       1.900000         CONSTANT HEAD       1
     100       1      50     180       1.900000         CONSTANT HEAD       1
     101       1      51       1       1.900000         CONSTANT HEAD       1
     102       1      51     180       1.900000         CONSTANT HEAD       1
     103       1      52       1       1.900000         CONSTANT HEAD       1
     104       1      52     180       1.900000         CONSTANT HEAD       1
     105       1      53       1       1.900000         CONSTANT HEAD       1
     106       1      53     180       1.900000         CONSTANT HEAD       1
     107       1      54       1       1.900000         CONSTANT HEAD       1
     108       1      54     180       1.900000         CONSTANT HEAD       1
     109       1      55       1       1.900000         CONSTANT HEAD       1
     110       1      55     180       1.900000         CONSTANT HEAD       1
     111       1      56       1       1.900000         CONSTANT HEAD       1
     112       1      56     180       1.900000         CONSTANT HEAD       1
     113       1      57       1       1.900000         CONSTANT HEAD       1
     114       1      57     180       1.900000         CONSTANT HEAD       1
     115       1      58       1       1.900000         CONSTANT HEAD       1
     116       1      58     180       1.900000         CONSTANT HEAD       1
     117       1      59       1       1.900000         CONSTANT HEAD       1
     118       1      59     180       1.900000         CONSTANT HEAD       1
     119       1      60       1       1.900000         CONSTANT HEAD       1
     120       1      60     180       1.900000         CONSTANT HEAD       1
     121       1      61       1       1.900000         CONSTANT HEAD       1
     122       1      61     180       1.900000         CONSTANT HEAD       1
     123       1      62       1       1.900000         CONSTANT HEAD       1
     124       1      62     180       1.900000         CONSTANT HEAD       1
     125       1      63       1       1.900000         CONSTANT HEAD       1
     126       1      63     180       1.900000         CONSTANT HEAD       1
     127       1      64       1       1.900000         CONSTANT HEAD       1
     128       1      64     180       1.900000         CONSTANT HEAD       1
     129       1      65       1       1.900000         CONSTANT HEAD       1
     130       1      65     180       1.900000         CONSTANT HEAD       1
     131       1      66       1       1.900000         CONSTANT HEAD       1
     132       1      66     180       1.900000         CONSTANT HEAD       1
     133       1      67       1       1.900000         CONSTANT HEAD       1
     134       1      67     180       1.900000         CONSTANT HEAD       1
     135       1      68       1       1.900000         CONSTANT HEAD       1
     136       1      68     180       1.900000         CONSTANT HEAD       1
     137       1      69       1       1.900000         CONSTANT HEAD       1
     138       1      69     180       1.900000         CONSTANT HEAD       1
     139       1      70       1       1.900000         CONSTANT HEAD       1
     140       1      70     180       1.900000         CONSTANT HEAD       1
     141       1      71       1       1.900000         CONSTANT HEAD       1
     142       1      71     180       1.900000         CONSTANT HEAD       1
     143       1      72       1       1.900000         CONSTANT HEAD       1
     144       1      72     180       1.900000         CONSTANT HEAD       1
     145       1      73       1       1.900000         CONSTANT HEAD       1
     146       1      73     180       1.900000         CONSTANT HEAD       1
     147       1      74       1       1.900000         CONSTANT HEAD       1
     148       1      74     180       1.900000         CONSTANT HEAD       1
     149       1      75       1       1.900000         CONSTANT HEAD       1
     150       1      75     180       1.900000         CONSTANT HEAD       1
     151       1      76       1       1.900000         CONSTANT HEAD       1
     152       1      76     180       1.900000         CONSTANT HEAD       1
     153       1      77       1       1.900000         CONSTANT HEAD       1
     154       1      77     180       1.900000         CONSTANT HEAD       1
     155       1      78       1       1.900000         CONSTANT HEAD       1
     156       1      78     180       1.900000         CONSTANT HEAD       1
     157       1      79       1       1.900000         CONSTANT HEAD       1
     158       1      79     180       1.900000         CONSTANT HEAD       1
     159       1      80       1       1.900000         CONSTANT HEAD       1
     160       1      80     180       1.900000         CONSTANT HEAD       1
     161       1      81       1       1.900000         CONSTANT HEAD       1
     162       1      81     180       1.900000         CONSTANT HEAD       1
     163       1      82       1       1.900000         CONSTANT HEAD       1
     164       1      82     180       1.900000         CONSTANT HEAD       1
     165       1      83       1       1.900000         CONSTANT HEAD       1
     166       1      83     180       1.900000         CONSTANT HEAD       1
     167       1      84       1       1.900000         CONSTANT HEAD       1
     168       1      84     180       1.900000         CONSTANT HEAD       1
     169       1      85       1       1.900000         CONSTANT HEAD       1
     170       1      85     180       1.900000         CONSTANT HEAD       1
     171       1      86       1       1.900000         CONSTANT HEAD       1
     172       1      86     180       1.900000         CONSTANT HEAD       1
     173       1      87       1       1.900000         CONSTANT HEAD       1
     174       1      87     180       1.900000         CONSTANT HEAD       1
     175       1      88       1       1.900000         CONSTANT HEAD       1
     176       1      88     180       1.900000         CONSTANT HEAD       1
     177       1      89       1       1.900000         CONSTANT HEAD       1
     178       1      89     180       1.900000         CONSTANT HEAD       1
     179       1      90       1       1.900000         CONSTANT HEAD       1
     180       1      90     180       1.900000         CONSTANT HEAD       1
     181       1      91       1       1.900000         CONSTANT HEAD       1
     182       1      91     180       1.900000         CONSTANT HEAD       1
     183       1      92       1       1.900000         CONSTANT HEAD       1
     184       1      92     180       1.900000         CONSTANT HEAD       1
     185       1      93       1       1.900000         CONSTANT HEAD       1
     186       1      93     180       1.900000         CONSTANT HEAD       1
     187       1      94       1       1.900000         CONSTANT HEAD       1
     188       1      94     180       1.900000         CONSTANT HEAD       1
     189       1      95       1       1.900000         CONSTANT HEAD       1
     190       1      95     180       1.900000         CONSTANT HEAD       1
     191       1      96       1       1.900000         CONSTANT HEAD       1
     192       1      96     180       1.900000         CONSTANT HEAD       1
     193       1      97       1       1.900000         CONSTANT HEAD       1
     194       1      97     180       1.900000         CONSTANT HEAD       1
     195       1      98       1       1.900000         CONSTANT HEAD       1
     196       1      98     180       1.900000         CONSTANT HEAD       1
     197       1      99       1       1.900000         CONSTANT HEAD       1
     198       1      99     180       1.900000         CONSTANT HEAD       1
     199       1     100       1       1.900000         CONSTANT HEAD       1
     200       1     100     180       1.900000         CONSTANT HEAD       1
     201       1     101       1       1.900000         CONSTANT HEAD       1
     202       1     101     180       1.900000         CONSTANT HEAD       1
     203       1     102       1       1.900000         CONSTANT HEAD       1
     204       1     102     180       1.900000         CONSTANT HEAD       1
     205       1     103       1       1.900000         CONSTANT HEAD       1
     206       1     103     180       1.900000         CONSTANT HEAD       1
     207       1     104       1       1.900000         CONSTANT HEAD       1
     208       1     104     180       1.900000         CONSTANT HEAD       1
     209       1     105       1       1.900000         CONSTANT HEAD       1
     210       1     105     180       1.900000         CONSTANT HEAD       1
     211       1     106       1       1.900000         CONSTANT HEAD       1
     212       1     106     180       1.900000         CONSTANT HEAD       1
     213       1     107       1       1.900000         CONSTANT HEAD       1
     214       1     107     180       1.900000         CONSTANT HEAD       1
     215       1     108       1       1.900000         CONSTANT HEAD       1
     216       1     108     180       1.900000         CONSTANT HEAD       1
     217       1     109       1       1.900000         CONSTANT HEAD       1
     218       1     109     180       1.900000         CONSTANT HEAD       1
     219       1     110       1       1.900000         CONSTANT HEAD       1
     220       1     110     180       1.900000         CONSTANT HEAD       1
     221       1     111       1       1.900000         CONSTANT HEAD       1
     222       1     111     180       1.900000         CONSTANT HEAD       1
     223       1     112       1       1.900000         CONSTANT HEAD       1
     224       1     112     180       1.900000         CONSTANT HEAD       1
     225       1     113       1       1.900000         CONSTANT HEAD       1
     226       1     113     180       1.900000         CONSTANT HEAD       1
     227       1     114       1       1.900000         CONSTANT HEAD       1
     228       1     114     180       1.900000         CONSTANT HEAD       1
     229       1     115       1       1.900000         CONSTANT HEAD       1
     230       1     115     180       1.900000         CONSTANT HEAD       1
     231       1     116       1       1.900000         CONSTANT HEAD       1
     232       1     116     180       1.900000         CONSTANT HEAD       1
     233       1     117       1       1.900000         CONSTANT HEAD       1
     234       1     117     180       1.900000         CONSTANT HEAD       1
     235       1     118       1       1.900000         CONSTANT HEAD       1
     236       1     118     180       1.900000         CONSTANT HEAD       1
     237       1     119       1       1.900000         CONSTANT HEAD       1
     238       1     119     180       1.900000         CONSTANT HEAD       1
     239       1     120       1       1.900000         CONSTANT HEAD       1
     240       1     120     180       1.900000         CONSTANT HEAD       1
     241       1     121       1       1.900000         CONSTANT HEAD       1
     242       1     121     180       1.900000         CONSTANT HEAD       1
     243       1     122       1       1.900000         CONSTANT HEAD       1
     244       1     122     180       1.900000         CONSTANT HEAD       1
     245       1     123       1       1.900000         CONSTANT HEAD       1
     246       1     123     180       1.900000         CONSTANT HEAD       1
     247       1     124       1       1.900000         CONSTANT HEAD       1
     248       1     124     180       1.900000         CONSTANT HEAD       1
     249       1     125       1       1.900000         CONSTANT HEAD       1
     250       1     125     180       1.900000         CONSTANT HEAD       1
     251       1     126       1       1.900000         CONSTANT HEAD       1
     252       1     126     180       1.900000         CONSTANT HEAD       1
     253       1     127       1       1.900000         CONSTANT HEAD       1
     254       1     127     180       1.900000         CONSTANT HEAD       1
     255       1     128       1       1.900000         CONSTANT HEAD       1
     256       1     128     180       1.900000         CONSTANT HEAD       1
     257       1     129       1       1.900000         CONSTANT HEAD       1
     258       1     129     180       1.900000         CONSTANT HEAD       1
     259       1     130       1       1.900000         CONSTANT HEAD       1
     260       1     130     180       1.900000         CONSTANT HEAD       1
     261       1     131       1       1.900000         CONSTANT HEAD       1
     262       1     131     180       1.900000         CONSTANT HEAD       1
     263       1     132       1       1.900000         CONSTANT HEAD       1
     264       1     132     180       1.900000         CONSTANT HEAD       1
     265       1     133       1       1.900000         CONSTANT HEAD       1
     266       1     133     180       1.900000         CONSTANT HEAD       1
     267       1     134       1       1.900000         CONSTANT HEAD       1
     268       1     134     180       1.900000         CONSTANT HEAD       1
     269       1     135       1       1.900000         CONSTANT HEAD       1
     270       1     135     180       1.900000         CONSTANT HEAD       1
     271       1     136       1       1.900000         CONSTANT HEAD       1
     272       1     136     180       1.900000         CONSTANT HEAD       1
     273       1     137       1       1.900000         CONSTANT HEAD       1
     274       1     137     180       1.900000         CONSTANT HEAD       1
     275       1     138       1       1.900000         CONSTANT HEAD       1
     276       1     138     180       1.900000         CONSTANT HEAD       1
     277       1     139       1       1.900000         CONSTANT HEAD       1
     278       1     139     180       1.900000         CONSTANT HEAD       1
     279       1     140       1       1.900000         CONSTANT HEAD       1
     280       1     140     180       1.900000         CONSTANT HEAD       1
     281       1     141       1       1.900000         CONSTANT HEAD       1
     282       1     141     180       1.900000         CONSTANT HEAD       1
     283       1     142       1       1.900000         CONSTANT HEAD       1
     284       1     142     180       1.900000         CONSTANT HEAD       1
     285       1     143       1       1.900000         CONSTANT HEAD       1
     286       1     143     180       1.900000         CONSTANT HEAD       1
     287       1     144       1       1.900000         CONSTANT HEAD       1
     288       1     144     180       1.900000         CONSTANT HEAD       1
     289       1     145       1       1.900000         CONSTANT HEAD       1
     290       1     145     180       1.900000         CONSTANT HEAD       1
     291       1     146       1       1.900000         CONSTANT HEAD       1
     292       1     146     180       1.900000         CONSTANT HEAD       1
     293       1     147       1       1.900000         CONSTANT HEAD       1
     294       1     147     180       1.900000         CONSTANT HEAD       1
     295       1     148       1       1.900000         CONSTANT HEAD       1
     296       1     148     180       1.900000         CONSTANT HEAD       1
     297       1     149       1       1.900000         CONSTANT HEAD       1
     298       1     149     180       1.900000         CONSTANT HEAD       1
     299       1     150       1       1.900000         CONSTANT HEAD       1
     300       1     150     180       1.900000         CONSTANT HEAD       1
     301       1     151       1       1.900000         CONSTANT HEAD       1
     302       1     151     180       1.900000         CONSTANT HEAD       1
     303       1     152       1       1.900000         CONSTANT HEAD       1
     304       1     152     180       1.900000         CONSTANT HEAD       1
     305       1     153       1       1.900000         CONSTANT HEAD       1
     306       1     153     180       1.900000         CONSTANT HEAD       1
     307       1     154       1       1.900000         CONSTANT HEAD       1
     308       1     154     180       1.900000         CONSTANT HEAD       1
     309       1     155       1       1.900000         CONSTANT HEAD       1
     310       1     155     180       1.900000         CONSTANT HEAD       1
     311       1     156       1       1.900000         CONSTANT HEAD       1
     312       1     156     180       1.900000         CONSTANT HEAD       1
     313       1     157       1       1.900000         CONSTANT HEAD       1
     314       1     157     180       1.900000         CONSTANT HEAD       1
     315       1     158       1       1.900000         CONSTANT HEAD       1
     316       1     158     180       1.900000         CONSTANT HEAD       1
     317       1     159       1       1.900000         CONSTANT HEAD       1
     318       1     159     180       1.900000         CONSTANT HEAD       1
     319       1     160       1       1.900000         CONSTANT HEAD       1
     320       1     160     180       1.900000         CONSTANT HEAD       1
     321       1     161       1       1.900000         CONSTANT HEAD       1
     322       1     161     180       1.900000         CONSTANT HEAD       1
     323       1     162       1       1.900000         CONSTANT HEAD       1
     324       1     162     180       1.900000         CONSTANT HEAD       1
     325       1     163       1       1.900000         CONSTANT HEAD       1
     326       1     163     180       1.900000         CONSTANT HEAD       1
     327       1     164       1       1.900000         CONSTANT HEAD       1
     328       1     164     180       1.900000         CONSTANT HEAD       1
     329       1     165       1       1.900000         CONSTANT HEAD       1
     330       1     165     180       1.900000         CONSTANT HEAD       1
     331       1     166       1       1.900000         CONSTANT HEAD       1
     332       1     166     180       1.900000         CONSTANT HEAD       1
     333       1     167       1       1.900000         CONSTANT HEAD       1
     334       1     167     180       1.900000         CONSTANT HEAD       1
     335       1     168       1       1.900000         CONSTANT HEAD       1
     336       1     168     180       1.900000         CONSTANT HEAD       1
     337       1     169       1       1.900000         CONSTANT HEAD       1
     338       1     169     180       1.900000         CONSTANT HEAD       1
     339       1     170       1       1.900000         CONSTANT HEAD       1
     340       1     170     180       1.900000         CONSTANT HEAD       1
     341       1     171       1       1.900000         CONSTANT HEAD       1
     342       1     171     180       1.900000         CONSTANT HEAD       1
     343       1     172       1       1.900000         CONSTANT HEAD       1
     344       1     172     180       1.900000         CONSTANT HEAD       1
     345       1     173       1       1.900000         CONSTANT HEAD       1
     346       1     173     180       1.900000         CONSTANT HEAD       1
     347       1     174       1       1.900000         CONSTANT HEAD       1
     348       1     174     180       1.900000         CONSTANT HEAD       1
     349       1     175       1       1.900000         CONSTANT HEAD       1
     350       1     175     180       1.900000         CONSTANT HEAD       1
     351       1     176       1       1.900000         CONSTANT HEAD       1
     352       1     176     180       1.900000         CONSTANT HEAD       1
     353       1     177       1       1.900000         CONSTANT HEAD       1
     354       1     177     180       1.900000         CONSTANT HEAD       1
     355       1     178       1       1.900000         CONSTANT HEAD       1
     356       1     178     180       1.900000         CONSTANT HEAD       1
     357       1     179       1       1.900000         CONSTANT HEAD       1
     358       1     179     180       1.900000         CONSTANT HEAD       1
     359       1     180       1       1.900000         CONSTANT HEAD       1
     360       1     180     180       1.900000         CONSTANT HEAD       1
     361       1      91      91      0.1500000         WELL                1


                                          ================================================
                                                         TIME STEP NO.  001
                                          ================================================

 FROM TIME =   480.00     TO    510.00    


                    "THKSAT          " FLOW TERMS FOR TIME STEP  1, STRESS PERIOD 17 READ UNFORMATTED ON UNIT 10
                    --------------------------------------------------------------------------------------------

                    "QXX             " FLOW TERMS FOR TIME STEP  1, STRESS PERIOD 17 READ UNFORMATTED ON UNIT 10
                    --------------------------------------------------------------------------------------------

                    "QYY             " FLOW TERMS FOR TIME STEP  1, STRESS PERIOD 17 READ UNFORMATTED ON UNIT 10
                    --------------------------------------------------------------------------------------------

                    "STO             " FLOW TERMS FOR TIME STEP  1, STRESS PERIOD 17 READ UNFORMATTED ON UNIT 10
                    --------------------------------------------------------------------------------------------

 MAXIMUM STEPSIZE DURING WHICH ANY PARTICLE CANNOT MOVE MORE THAN ONE CELL
 =  7.071    (WHEN MIN. R.F.=1)  AT K=   1, I=  91, J=  92

 MAXIMUM STEPSIZE WHICH MEETS STABILITY CRITERION OF THE ADVECTION TERM
 (FOR PURE FINITE-DIFFERENCE OPTION, MIXELM=0) 
 =  2.598    (WHEN MIN. R.F.=1)  AT K=   1, I=  91, J=  91

                    "CNH             " FLOW TERMS FOR TIME STEP  1, STRESS PERIOD 17 READ UNFORMATTED ON UNIT 10
                    --------------------------------------------------------------------------------------------

                    "WEL             " FLOW TERMS FOR TIME STEP  1, STRESS PERIOD 17 READ UNFORMATTED ON UNIT 10
                    --------------------------------------------------------------------------------------------


 TOTAL NUMBER OF POINT SOURCES/SINKS PRESENT IN THE FLOW MODEL =   361

 MAXIMUM STEPSIZE WHICH MEETS STABILITY CRITERION OF THE SINK & SOURCE TERM
 = 0.6659E+05(WHEN MIN. R.F.=1)  AT K=   1, I=   1, J= 180

 MAXIMUM STEPSIZE WHICH MEETS STABILITY CRITERION OF THE DISPERSION TERM
 =  1.299    (WHEN MIN. R.F.=1)  AT K=   1, I=  91, J=  91


     1 CALLS TO GCG PACKAGE FOR TRANSPORT TIME STEP     1 IN FLOW TIME STEP     1 STRESS PERIOD    17
      4 TOTAL ITERATIONS
  MAXIMUM CONCENTRATION CHANGES FOR EACH ITERATION:
  MAX. CHANGE LAYER,ROW,COL MAX. CHANGE LAYER,ROW,COL MAX. CHANGE LAYER,ROW,COL MAX. CHANGE LAYER,ROW,COL MAX. CHANGE LAYER,ROW,COL
 ------------------------------------------------------------------------------------------------------------------------------------
   0.1904E-01 (  1, 89, 93)  0.9885E-04 (  1, 87, 95)  0.1889E-04 (  1, 92, 91)  0.3576E-05 (  1, 91, 92)



 >>>>>>>>>>>>>>>>>>>>>>>>>>>>>>>>>>>>>>>>>>>>>>>>>>>>>>>FOR COMPONENT NO. 01<<<<<<<<<<<<<<<<<<<<<<<<<<<<<<<<<<<<<<<<<<<<<<<<<<<<<<<


                                            -------------------------------------------
                                                      TRANSPORT STEP NO.    1
                                            -------------------------------------------

 TOTAL ELAPSED TIME SINCE BEGINNING OF SIMULATION =   510.0000    D   
 .....................................................................

                     CUMULATIVE MASS BUDGETS AT END OF TRANSPORT STEP    1, TIME STEP    1, STRESS PERIOD   17
                     -----------------------------------------------------------------------------------------

                                                             IN                           OUT
                                                      ----------------             ----------------
                               CONSTANT CONCENTRATION:    0.000000                    0.000000    
                                        CONSTANT HEAD:    3502565.                   -3642865.    
                                                WELLS:    67187.48                   -186197.4    
                               MASS STOR (FLOW MODEL):    3026626.                   -3096573.    
                                MASS STORAGE (SOLUTE):    777860.1                   -447979.3    
                            ---------------------------------------------------------------------------
                                              [TOTAL]:    7374238.     KG            -7373615.     KG  

                                                          NET (IN - OUT):    623.5000    
                                                   DISCREPANCY (PERCENT):   0.8455467E-02


                                   ++++++++++++++++++++++++++++++++++++++++++++++++++++++++++++++
                                                       STRESS PERIOD NO.  018
                                   ++++++++++++++++++++++++++++++++++++++++++++++++++++++++++++++


 LENGTH OF CURRENT STRESS PERIOD =   30.00000    
 NUMBER OF TIME STEPS FOR CURRENT STRESS PERIOD =    1
 TIME STEP MULTIPLIER USED IN FLOW SOLUTION =   1.000000    

 ***Type of Transport Simulation is TRANSIENT

 USER-SPECIFIED TRANSPORT STEPSIZE =   30.00000    D   
 MAXIMUM NUMBER OF TRANSPORT STEPS ALLOWED  IN ONE FLOW TIME STEP =     50000
 MULTIPLIER FOR SUCCESSIVE TRANSPORT STEPS  [USED IN IMPLICIT SCHEMES] =     1.000
 MAXIMUM TRANSPORT STEP SIZE  [USED IN IMPLICIT SCHEMES] =   0.000000    D   

       NO    LAYER   ROW   COLUMN   CONCENTRATION       TYPE            COMPONENT
       1       1       1       1       1.900000         CONSTANT HEAD       1
       2       1       1     180       1.900000         CONSTANT HEAD       1
       3       1       2       1       1.900000         CONSTANT HEAD       1
       4       1       2     180       1.900000         CONSTANT HEAD       1
       5       1       3       1       1.900000         CONSTANT HEAD       1
       6       1       3     180       1.900000         CONSTANT HEAD       1
       7       1       4       1       1.900000         CONSTANT HEAD       1
       8       1       4     180       1.900000         CONSTANT HEAD       1
       9       1       5       1       1.900000         CONSTANT HEAD       1
      10       1       5     180       1.900000         CONSTANT HEAD       1
      11       1       6       1       1.900000         CONSTANT HEAD       1
      12       1       6     180       1.900000         CONSTANT HEAD       1
      13       1       7       1       1.900000         CONSTANT HEAD       1
      14       1       7     180       1.900000         CONSTANT HEAD       1
      15       1       8       1       1.900000         CONSTANT HEAD       1
      16       1       8     180       1.900000         CONSTANT HEAD       1
      17       1       9       1       1.900000         CONSTANT HEAD       1
      18       1       9     180       1.900000         CONSTANT HEAD       1
      19       1      10       1       1.900000         CONSTANT HEAD       1
      20       1      10     180       1.900000         CONSTANT HEAD       1
      21       1      11       1       1.900000         CONSTANT HEAD       1
      22       1      11     180       1.900000         CONSTANT HEAD       1
      23       1      12       1       1.900000         CONSTANT HEAD       1
      24       1      12     180       1.900000         CONSTANT HEAD       1
      25       1      13       1       1.900000         CONSTANT HEAD       1
      26       1      13     180       1.900000         CONSTANT HEAD       1
      27       1      14       1       1.900000         CONSTANT HEAD       1
      28       1      14     180       1.900000         CONSTANT HEAD       1
      29       1      15       1       1.900000         CONSTANT HEAD       1
      30       1      15     180       1.900000         CONSTANT HEAD       1
      31       1      16       1       1.900000         CONSTANT HEAD       1
      32       1      16     180       1.900000         CONSTANT HEAD       1
      33       1      17       1       1.900000         CONSTANT HEAD       1
      34       1      17     180       1.900000         CONSTANT HEAD       1
      35       1      18       1       1.900000         CONSTANT HEAD       1
      36       1      18     180       1.900000         CONSTANT HEAD       1
      37       1      19       1       1.900000         CONSTANT HEAD       1
      38       1      19     180       1.900000         CONSTANT HEAD       1
      39       1      20       1       1.900000         CONSTANT HEAD       1
      40       1      20     180       1.900000         CONSTANT HEAD       1
      41       1      21       1       1.900000         CONSTANT HEAD       1
      42       1      21     180       1.900000         CONSTANT HEAD       1
      43       1      22       1       1.900000         CONSTANT HEAD       1
      44       1      22     180       1.900000         CONSTANT HEAD       1
      45       1      23       1       1.900000         CONSTANT HEAD       1
      46       1      23     180       1.900000         CONSTANT HEAD       1
      47       1      24       1       1.900000         CONSTANT HEAD       1
      48       1      24     180       1.900000         CONSTANT HEAD       1
      49       1      25       1       1.900000         CONSTANT HEAD       1
      50       1      25     180       1.900000         CONSTANT HEAD       1
      51       1      26       1       1.900000         CONSTANT HEAD       1
      52       1      26     180       1.900000         CONSTANT HEAD       1
      53       1      27       1       1.900000         CONSTANT HEAD       1
      54       1      27     180       1.900000         CONSTANT HEAD       1
      55       1      28       1       1.900000         CONSTANT HEAD       1
      56       1      28     180       1.900000         CONSTANT HEAD       1
      57       1      29       1       1.900000         CONSTANT HEAD       1
      58       1      29     180       1.900000         CONSTANT HEAD       1
      59       1      30       1       1.900000         CONSTANT HEAD       1
      60       1      30     180       1.900000         CONSTANT HEAD       1
      61       1      31       1       1.900000         CONSTANT HEAD       1
      62       1      31     180       1.900000         CONSTANT HEAD       1
      63       1      32       1       1.900000         CONSTANT HEAD       1
      64       1      32     180       1.900000         CONSTANT HEAD       1
      65       1      33       1       1.900000         CONSTANT HEAD       1
      66       1      33     180       1.900000         CONSTANT HEAD       1
      67       1      34       1       1.900000         CONSTANT HEAD       1
      68       1      34     180       1.900000         CONSTANT HEAD       1
      69       1      35       1       1.900000         CONSTANT HEAD       1
      70       1      35     180       1.900000         CONSTANT HEAD       1
      71       1      36       1       1.900000         CONSTANT HEAD       1
      72       1      36     180       1.900000         CONSTANT HEAD       1
      73       1      37       1       1.900000         CONSTANT HEAD       1
      74       1      37     180       1.900000         CONSTANT HEAD       1
      75       1      38       1       1.900000         CONSTANT HEAD       1
      76       1      38     180       1.900000         CONSTANT HEAD       1
      77       1      39       1       1.900000         CONSTANT HEAD       1
      78       1      39     180       1.900000         CONSTANT HEAD       1
      79       1      40       1       1.900000         CONSTANT HEAD       1
      80       1      40     180       1.900000         CONSTANT HEAD       1
      81       1      41       1       1.900000         CONSTANT HEAD       1
      82       1      41     180       1.900000         CONSTANT HEAD       1
      83       1      42       1       1.900000         CONSTANT HEAD       1
      84       1      42     180       1.900000         CONSTANT HEAD       1
      85       1      43       1       1.900000         CONSTANT HEAD       1
      86       1      43     180       1.900000         CONSTANT HEAD       1
      87       1      44       1       1.900000         CONSTANT HEAD       1
      88       1      44     180       1.900000         CONSTANT HEAD       1
      89       1      45       1       1.900000         CONSTANT HEAD       1
      90       1      45     180       1.900000         CONSTANT HEAD       1
      91       1      46       1       1.900000         CONSTANT HEAD       1
      92       1      46     180       1.900000         CONSTANT HEAD       1
      93       1      47       1       1.900000         CONSTANT HEAD       1
      94       1      47     180       1.900000         CONSTANT HEAD       1
      95       1      48       1       1.900000         CONSTANT HEAD       1
      96       1      48     180       1.900000         CONSTANT HEAD       1
      97       1      49       1       1.900000         CONSTANT HEAD       1
      98       1      49     180       1.900000         CONSTANT HEAD       1
      99       1      50       1       1.900000         CONSTANT HEAD       1
     100       1      50     180       1.900000         CONSTANT HEAD       1
     101       1      51       1       1.900000         CONSTANT HEAD       1
     102       1      51     180       1.900000         CONSTANT HEAD       1
     103       1      52       1       1.900000         CONSTANT HEAD       1
     104       1      52     180       1.900000         CONSTANT HEAD       1
     105       1      53       1       1.900000         CONSTANT HEAD       1
     106       1      53     180       1.900000         CONSTANT HEAD       1
     107       1      54       1       1.900000         CONSTANT HEAD       1
     108       1      54     180       1.900000         CONSTANT HEAD       1
     109       1      55       1       1.900000         CONSTANT HEAD       1
     110       1      55     180       1.900000         CONSTANT HEAD       1
     111       1      56       1       1.900000         CONSTANT HEAD       1
     112       1      56     180       1.900000         CONSTANT HEAD       1
     113       1      57       1       1.900000         CONSTANT HEAD       1
     114       1      57     180       1.900000         CONSTANT HEAD       1
     115       1      58       1       1.900000         CONSTANT HEAD       1
     116       1      58     180       1.900000         CONSTANT HEAD       1
     117       1      59       1       1.900000         CONSTANT HEAD       1
     118       1      59     180       1.900000         CONSTANT HEAD       1
     119       1      60       1       1.900000         CONSTANT HEAD       1
     120       1      60     180       1.900000         CONSTANT HEAD       1
     121       1      61       1       1.900000         CONSTANT HEAD       1
     122       1      61     180       1.900000         CONSTANT HEAD       1
     123       1      62       1       1.900000         CONSTANT HEAD       1
     124       1      62     180       1.900000         CONSTANT HEAD       1
     125       1      63       1       1.900000         CONSTANT HEAD       1
     126       1      63     180       1.900000         CONSTANT HEAD       1
     127       1      64       1       1.900000         CONSTANT HEAD       1
     128       1      64     180       1.900000         CONSTANT HEAD       1
     129       1      65       1       1.900000         CONSTANT HEAD       1
     130       1      65     180       1.900000         CONSTANT HEAD       1
     131       1      66       1       1.900000         CONSTANT HEAD       1
     132       1      66     180       1.900000         CONSTANT HEAD       1
     133       1      67       1       1.900000         CONSTANT HEAD       1
     134       1      67     180       1.900000         CONSTANT HEAD       1
     135       1      68       1       1.900000         CONSTANT HEAD       1
     136       1      68     180       1.900000         CONSTANT HEAD       1
     137       1      69       1       1.900000         CONSTANT HEAD       1
     138       1      69     180       1.900000         CONSTANT HEAD       1
     139       1      70       1       1.900000         CONSTANT HEAD       1
     140       1      70     180       1.900000         CONSTANT HEAD       1
     141       1      71       1       1.900000         CONSTANT HEAD       1
     142       1      71     180       1.900000         CONSTANT HEAD       1
     143       1      72       1       1.900000         CONSTANT HEAD       1
     144       1      72     180       1.900000         CONSTANT HEAD       1
     145       1      73       1       1.900000         CONSTANT HEAD       1
     146       1      73     180       1.900000         CONSTANT HEAD       1
     147       1      74       1       1.900000         CONSTANT HEAD       1
     148       1      74     180       1.900000         CONSTANT HEAD       1
     149       1      75       1       1.900000         CONSTANT HEAD       1
     150       1      75     180       1.900000         CONSTANT HEAD       1
     151       1      76       1       1.900000         CONSTANT HEAD       1
     152       1      76     180       1.900000         CONSTANT HEAD       1
     153       1      77       1       1.900000         CONSTANT HEAD       1
     154       1      77     180       1.900000         CONSTANT HEAD       1
     155       1      78       1       1.900000         CONSTANT HEAD       1
     156       1      78     180       1.900000         CONSTANT HEAD       1
     157       1      79       1       1.900000         CONSTANT HEAD       1
     158       1      79     180       1.900000         CONSTANT HEAD       1
     159       1      80       1       1.900000         CONSTANT HEAD       1
     160       1      80     180       1.900000         CONSTANT HEAD       1
     161       1      81       1       1.900000         CONSTANT HEAD       1
     162       1      81     180       1.900000         CONSTANT HEAD       1
     163       1      82       1       1.900000         CONSTANT HEAD       1
     164       1      82     180       1.900000         CONSTANT HEAD       1
     165       1      83       1       1.900000         CONSTANT HEAD       1
     166       1      83     180       1.900000         CONSTANT HEAD       1
     167       1      84       1       1.900000         CONSTANT HEAD       1
     168       1      84     180       1.900000         CONSTANT HEAD       1
     169       1      85       1       1.900000         CONSTANT HEAD       1
     170       1      85     180       1.900000         CONSTANT HEAD       1
     171       1      86       1       1.900000         CONSTANT HEAD       1
     172       1      86     180       1.900000         CONSTANT HEAD       1
     173       1      87       1       1.900000         CONSTANT HEAD       1
     174       1      87     180       1.900000         CONSTANT HEAD       1
     175       1      88       1       1.900000         CONSTANT HEAD       1
     176       1      88     180       1.900000         CONSTANT HEAD       1
     177       1      89       1       1.900000         CONSTANT HEAD       1
     178       1      89     180       1.900000         CONSTANT HEAD       1
     179       1      90       1       1.900000         CONSTANT HEAD       1
     180       1      90     180       1.900000         CONSTANT HEAD       1
     181       1      91       1       1.900000         CONSTANT HEAD       1
     182       1      91     180       1.900000         CONSTANT HEAD       1
     183       1      92       1       1.900000         CONSTANT HEAD       1
     184       1      92     180       1.900000         CONSTANT HEAD       1
     185       1      93       1       1.900000         CONSTANT HEAD       1
     186       1      93     180       1.900000         CONSTANT HEAD       1
     187       1      94       1       1.900000         CONSTANT HEAD       1
     188       1      94     180       1.900000         CONSTANT HEAD       1
     189       1      95       1       1.900000         CONSTANT HEAD       1
     190       1      95     180       1.900000         CONSTANT HEAD       1
     191       1      96       1       1.900000         CONSTANT HEAD       1
     192       1      96     180       1.900000         CONSTANT HEAD       1
     193       1      97       1       1.900000         CONSTANT HEAD       1
     194       1      97     180       1.900000         CONSTANT HEAD       1
     195       1      98       1       1.900000         CONSTANT HEAD       1
     196       1      98     180       1.900000         CONSTANT HEAD       1
     197       1      99       1       1.900000         CONSTANT HEAD       1
     198       1      99     180       1.900000         CONSTANT HEAD       1
     199       1     100       1       1.900000         CONSTANT HEAD       1
     200       1     100     180       1.900000         CONSTANT HEAD       1
     201       1     101       1       1.900000         CONSTANT HEAD       1
     202       1     101     180       1.900000         CONSTANT HEAD       1
     203       1     102       1       1.900000         CONSTANT HEAD       1
     204       1     102     180       1.900000         CONSTANT HEAD       1
     205       1     103       1       1.900000         CONSTANT HEAD       1
     206       1     103     180       1.900000         CONSTANT HEAD       1
     207       1     104       1       1.900000         CONSTANT HEAD       1
     208       1     104     180       1.900000         CONSTANT HEAD       1
     209       1     105       1       1.900000         CONSTANT HEAD       1
     210       1     105     180       1.900000         CONSTANT HEAD       1
     211       1     106       1       1.900000         CONSTANT HEAD       1
     212       1     106     180       1.900000         CONSTANT HEAD       1
     213       1     107       1       1.900000         CONSTANT HEAD       1
     214       1     107     180       1.900000         CONSTANT HEAD       1
     215       1     108       1       1.900000         CONSTANT HEAD       1
     216       1     108     180       1.900000         CONSTANT HEAD       1
     217       1     109       1       1.900000         CONSTANT HEAD       1
     218       1     109     180       1.900000         CONSTANT HEAD       1
     219       1     110       1       1.900000         CONSTANT HEAD       1
     220       1     110     180       1.900000         CONSTANT HEAD       1
     221       1     111       1       1.900000         CONSTANT HEAD       1
     222       1     111     180       1.900000         CONSTANT HEAD       1
     223       1     112       1       1.900000         CONSTANT HEAD       1
     224       1     112     180       1.900000         CONSTANT HEAD       1
     225       1     113       1       1.900000         CONSTANT HEAD       1
     226       1     113     180       1.900000         CONSTANT HEAD       1
     227       1     114       1       1.900000         CONSTANT HEAD       1
     228       1     114     180       1.900000         CONSTANT HEAD       1
     229       1     115       1       1.900000         CONSTANT HEAD       1
     230       1     115     180       1.900000         CONSTANT HEAD       1
     231       1     116       1       1.900000         CONSTANT HEAD       1
     232       1     116     180       1.900000         CONSTANT HEAD       1
     233       1     117       1       1.900000         CONSTANT HEAD       1
     234       1     117     180       1.900000         CONSTANT HEAD       1
     235       1     118       1       1.900000         CONSTANT HEAD       1
     236       1     118     180       1.900000         CONSTANT HEAD       1
     237       1     119       1       1.900000         CONSTANT HEAD       1
     238       1     119     180       1.900000         CONSTANT HEAD       1
     239       1     120       1       1.900000         CONSTANT HEAD       1
     240       1     120     180       1.900000         CONSTANT HEAD       1
     241       1     121       1       1.900000         CONSTANT HEAD       1
     242       1     121     180       1.900000         CONSTANT HEAD       1
     243       1     122       1       1.900000         CONSTANT HEAD       1
     244       1     122     180       1.900000         CONSTANT HEAD       1
     245       1     123       1       1.900000         CONSTANT HEAD       1
     246       1     123     180       1.900000         CONSTANT HEAD       1
     247       1     124       1       1.900000         CONSTANT HEAD       1
     248       1     124     180       1.900000         CONSTANT HEAD       1
     249       1     125       1       1.900000         CONSTANT HEAD       1
     250       1     125     180       1.900000         CONSTANT HEAD       1
     251       1     126       1       1.900000         CONSTANT HEAD       1
     252       1     126     180       1.900000         CONSTANT HEAD       1
     253       1     127       1       1.900000         CONSTANT HEAD       1
     254       1     127     180       1.900000         CONSTANT HEAD       1
     255       1     128       1       1.900000         CONSTANT HEAD       1
     256       1     128     180       1.900000         CONSTANT HEAD       1
     257       1     129       1       1.900000         CONSTANT HEAD       1
     258       1     129     180       1.900000         CONSTANT HEAD       1
     259       1     130       1       1.900000         CONSTANT HEAD       1
     260       1     130     180       1.900000         CONSTANT HEAD       1
     261       1     131       1       1.900000         CONSTANT HEAD       1
     262       1     131     180       1.900000         CONSTANT HEAD       1
     263       1     132       1       1.900000         CONSTANT HEAD       1
     264       1     132     180       1.900000         CONSTANT HEAD       1
     265       1     133       1       1.900000         CONSTANT HEAD       1
     266       1     133     180       1.900000         CONSTANT HEAD       1
     267       1     134       1       1.900000         CONSTANT HEAD       1
     268       1     134     180       1.900000         CONSTANT HEAD       1
     269       1     135       1       1.900000         CONSTANT HEAD       1
     270       1     135     180       1.900000         CONSTANT HEAD       1
     271       1     136       1       1.900000         CONSTANT HEAD       1
     272       1     136     180       1.900000         CONSTANT HEAD       1
     273       1     137       1       1.900000         CONSTANT HEAD       1
     274       1     137     180       1.900000         CONSTANT HEAD       1
     275       1     138       1       1.900000         CONSTANT HEAD       1
     276       1     138     180       1.900000         CONSTANT HEAD       1
     277       1     139       1       1.900000         CONSTANT HEAD       1
     278       1     139     180       1.900000         CONSTANT HEAD       1
     279       1     140       1       1.900000         CONSTANT HEAD       1
     280       1     140     180       1.900000         CONSTANT HEAD       1
     281       1     141       1       1.900000         CONSTANT HEAD       1
     282       1     141     180       1.900000         CONSTANT HEAD       1
     283       1     142       1       1.900000         CONSTANT HEAD       1
     284       1     142     180       1.900000         CONSTANT HEAD       1
     285       1     143       1       1.900000         CONSTANT HEAD       1
     286       1     143     180       1.900000         CONSTANT HEAD       1
     287       1     144       1       1.900000         CONSTANT HEAD       1
     288       1     144     180       1.900000         CONSTANT HEAD       1
     289       1     145       1       1.900000         CONSTANT HEAD       1
     290       1     145     180       1.900000         CONSTANT HEAD       1
     291       1     146       1       1.900000         CONSTANT HEAD       1
     292       1     146     180       1.900000         CONSTANT HEAD       1
     293       1     147       1       1.900000         CONSTANT HEAD       1
     294       1     147     180       1.900000         CONSTANT HEAD       1
     295       1     148       1       1.900000         CONSTANT HEAD       1
     296       1     148     180       1.900000         CONSTANT HEAD       1
     297       1     149       1       1.900000         CONSTANT HEAD       1
     298       1     149     180       1.900000         CONSTANT HEAD       1
     299       1     150       1       1.900000         CONSTANT HEAD       1
     300       1     150     180       1.900000         CONSTANT HEAD       1
     301       1     151       1       1.900000         CONSTANT HEAD       1
     302       1     151     180       1.900000         CONSTANT HEAD       1
     303       1     152       1       1.900000         CONSTANT HEAD       1
     304       1     152     180       1.900000         CONSTANT HEAD       1
     305       1     153       1       1.900000         CONSTANT HEAD       1
     306       1     153     180       1.900000         CONSTANT HEAD       1
     307       1     154       1       1.900000         CONSTANT HEAD       1
     308       1     154     180       1.900000         CONSTANT HEAD       1
     309       1     155       1       1.900000         CONSTANT HEAD       1
     310       1     155     180       1.900000         CONSTANT HEAD       1
     311       1     156       1       1.900000         CONSTANT HEAD       1
     312       1     156     180       1.900000         CONSTANT HEAD       1
     313       1     157       1       1.900000         CONSTANT HEAD       1
     314       1     157     180       1.900000         CONSTANT HEAD       1
     315       1     158       1       1.900000         CONSTANT HEAD       1
     316       1     158     180       1.900000         CONSTANT HEAD       1
     317       1     159       1       1.900000         CONSTANT HEAD       1
     318       1     159     180       1.900000         CONSTANT HEAD       1
     319       1     160       1       1.900000         CONSTANT HEAD       1
     320       1     160     180       1.900000         CONSTANT HEAD       1
     321       1     161       1       1.900000         CONSTANT HEAD       1
     322       1     161     180       1.900000         CONSTANT HEAD       1
     323       1     162       1       1.900000         CONSTANT HEAD       1
     324       1     162     180       1.900000         CONSTANT HEAD       1
     325       1     163       1       1.900000         CONSTANT HEAD       1
     326       1     163     180       1.900000         CONSTANT HEAD       1
     327       1     164       1       1.900000         CONSTANT HEAD       1
     328       1     164     180       1.900000         CONSTANT HEAD       1
     329       1     165       1       1.900000         CONSTANT HEAD       1
     330       1     165     180       1.900000         CONSTANT HEAD       1
     331       1     166       1       1.900000         CONSTANT HEAD       1
     332       1     166     180       1.900000         CONSTANT HEAD       1
     333       1     167       1       1.900000         CONSTANT HEAD       1
     334       1     167     180       1.900000         CONSTANT HEAD       1
     335       1     168       1       1.900000         CONSTANT HEAD       1
     336       1     168     180       1.900000         CONSTANT HEAD       1
     337       1     169       1       1.900000         CONSTANT HEAD       1
     338       1     169     180       1.900000         CONSTANT HEAD       1
     339       1     170       1       1.900000         CONSTANT HEAD       1
     340       1     170     180       1.900000         CONSTANT HEAD       1
     341       1     171       1       1.900000         CONSTANT HEAD       1
     342       1     171     180       1.900000         CONSTANT HEAD       1
     343       1     172       1       1.900000         CONSTANT HEAD       1
     344       1     172     180       1.900000         CONSTANT HEAD       1
     345       1     173       1       1.900000         CONSTANT HEAD       1
     346       1     173     180       1.900000         CONSTANT HEAD       1
     347       1     174       1       1.900000         CONSTANT HEAD       1
     348       1     174     180       1.900000         CONSTANT HEAD       1
     349       1     175       1       1.900000         CONSTANT HEAD       1
     350       1     175     180       1.900000         CONSTANT HEAD       1
     351       1     176       1       1.900000         CONSTANT HEAD       1
     352       1     176     180       1.900000         CONSTANT HEAD       1
     353       1     177       1       1.900000         CONSTANT HEAD       1
     354       1     177     180       1.900000         CONSTANT HEAD       1
     355       1     178       1       1.900000         CONSTANT HEAD       1
     356       1     178     180       1.900000         CONSTANT HEAD       1
     357       1     179       1       1.900000         CONSTANT HEAD       1
     358       1     179     180       1.900000         CONSTANT HEAD       1
     359       1     180       1       1.900000         CONSTANT HEAD       1
     360       1     180     180       1.900000         CONSTANT HEAD       1
     361       1      91      91      0.1500000         WELL                1


                                          ================================================
                                                         TIME STEP NO.  001
                                          ================================================

 FROM TIME =   510.00     TO    540.00    


                    "THKSAT          " FLOW TERMS FOR TIME STEP  1, STRESS PERIOD 18 READ UNFORMATTED ON UNIT 10
                    --------------------------------------------------------------------------------------------

                    "QXX             " FLOW TERMS FOR TIME STEP  1, STRESS PERIOD 18 READ UNFORMATTED ON UNIT 10
                    --------------------------------------------------------------------------------------------

                    "QYY             " FLOW TERMS FOR TIME STEP  1, STRESS PERIOD 18 READ UNFORMATTED ON UNIT 10
                    --------------------------------------------------------------------------------------------

                    "STO             " FLOW TERMS FOR TIME STEP  1, STRESS PERIOD 18 READ UNFORMATTED ON UNIT 10
                    --------------------------------------------------------------------------------------------

 MAXIMUM STEPSIZE DURING WHICH ANY PARTICLE CANNOT MOVE MORE THAN ONE CELL
 = 0.9984    (WHEN MIN. R.F.=1)  AT K=   1, I=  91, J=  90

 MAXIMUM STEPSIZE WHICH MEETS STABILITY CRITERION OF THE ADVECTION TERM
 (FOR PURE FINITE-DIFFERENCE OPTION, MIXELM=0) 
 = 0.3633    (WHEN MIN. R.F.=1)  AT K=   1, I=  91, J=  91

                    "CNH             " FLOW TERMS FOR TIME STEP  1, STRESS PERIOD 18 READ UNFORMATTED ON UNIT 10
                    --------------------------------------------------------------------------------------------

                    "WEL             " FLOW TERMS FOR TIME STEP  1, STRESS PERIOD 18 READ UNFORMATTED ON UNIT 10
                    --------------------------------------------------------------------------------------------


 TOTAL NUMBER OF POINT SOURCES/SINKS PRESENT IN THE FLOW MODEL =   361

 MAXIMUM STEPSIZE WHICH MEETS STABILITY CRITERION OF THE SINK & SOURCE TERM
 = 0.1818    (WHEN MIN. R.F.=1)  AT K=   1, I=  91, J=  91

 MAXIMUM STEPSIZE WHICH MEETS STABILITY CRITERION OF THE DISPERSION TERM
 = 0.1820    (WHEN MIN. R.F.=1)  AT K=   1, I=  91, J=  91


     1 CALLS TO GCG PACKAGE FOR TRANSPORT TIME STEP     1 IN FLOW TIME STEP     1 STRESS PERIOD    18
     11 TOTAL ITERATIONS
  MAXIMUM CONCENTRATION CHANGES FOR EACH ITERATION:
  MAX. CHANGE LAYER,ROW,COL MAX. CHANGE LAYER,ROW,COL MAX. CHANGE LAYER,ROW,COL MAX. CHANGE LAYER,ROW,COL MAX. CHANGE LAYER,ROW,COL
 ------------------------------------------------------------------------------------------------------------------------------------
   0.4377     (  1, 91, 91)  0.2358     (  1, 95, 90)  0.9010E-01 (  1, 96, 88)  0.2821E-01 (  1, 96, 89)  0.9395E-02 (  1, 97, 87)
   0.2284E-02 (  1, 99, 86)  0.1005E-02 (  1, 99, 85)  0.5506E-03 (  1,100, 84)  0.1571E-03 (  1,102, 82)  0.3827E-04 (  1,103, 80)
   0.7331E-05 (  1,105, 79)



 >>>>>>>>>>>>>>>>>>>>>>>>>>>>>>>>>>>>>>>>>>>>>>>>>>>>>>>FOR COMPONENT NO. 01<<<<<<<<<<<<<<<<<<<<<<<<<<<<<<<<<<<<<<<<<<<<<<<<<<<<<<<


                                            -------------------------------------------
                                                      TRANSPORT STEP NO.    1
                                            -------------------------------------------

 TOTAL ELAPSED TIME SINCE BEGINNING OF SIMULATION =   540.0000    D   
 .....................................................................

                     CUMULATIVE MASS BUDGETS AT END OF TRANSPORT STEP    1, TIME STEP    1, STRESS PERIOD   18
                     -----------------------------------------------------------------------------------------

                                                             IN                           OUT
                                                      ----------------             ----------------
                               CONSTANT CONCENTRATION:    0.000000                    0.000000    
                                        CONSTANT HEAD:    3634564.                   -3782585.    
                                                WELLS:    76840.10                   -186197.4    
                               MASS STOR (FLOW MODEL):    3055048.                   -3237800.    
                                MASS STORAGE (SOLUTE):    888840.1                   -448043.1    
                            ---------------------------------------------------------------------------
                                              [TOTAL]:    7655291.     KG            -7654625.     KG  

                                                          NET (IN - OUT):    666.0000    
                                                   DISCREPANCY (PERCENT):   0.8700244E-02


                                   ++++++++++++++++++++++++++++++++++++++++++++++++++++++++++++++
                                                       STRESS PERIOD NO.  019
                                   ++++++++++++++++++++++++++++++++++++++++++++++++++++++++++++++


 LENGTH OF CURRENT STRESS PERIOD =   30.00000    
 NUMBER OF TIME STEPS FOR CURRENT STRESS PERIOD =    1
 TIME STEP MULTIPLIER USED IN FLOW SOLUTION =   1.000000    

 ***Type of Transport Simulation is TRANSIENT

 USER-SPECIFIED TRANSPORT STEPSIZE =   30.00000    D   
 MAXIMUM NUMBER OF TRANSPORT STEPS ALLOWED  IN ONE FLOW TIME STEP =     50000
 MULTIPLIER FOR SUCCESSIVE TRANSPORT STEPS  [USED IN IMPLICIT SCHEMES] =     1.000
 MAXIMUM TRANSPORT STEP SIZE  [USED IN IMPLICIT SCHEMES] =   0.000000    D   

       NO    LAYER   ROW   COLUMN   CONCENTRATION       TYPE            COMPONENT
       1       1       1       1       1.900000         CONSTANT HEAD       1
       2       1       1     180       1.900000         CONSTANT HEAD       1
       3       1       2       1       1.900000         CONSTANT HEAD       1
       4       1       2     180       1.900000         CONSTANT HEAD       1
       5       1       3       1       1.900000         CONSTANT HEAD       1
       6       1       3     180       1.900000         CONSTANT HEAD       1
       7       1       4       1       1.900000         CONSTANT HEAD       1
       8       1       4     180       1.900000         CONSTANT HEAD       1
       9       1       5       1       1.900000         CONSTANT HEAD       1
      10       1       5     180       1.900000         CONSTANT HEAD       1
      11       1       6       1       1.900000         CONSTANT HEAD       1
      12       1       6     180       1.900000         CONSTANT HEAD       1
      13       1       7       1       1.900000         CONSTANT HEAD       1
      14       1       7     180       1.900000         CONSTANT HEAD       1
      15       1       8       1       1.900000         CONSTANT HEAD       1
      16       1       8     180       1.900000         CONSTANT HEAD       1
      17       1       9       1       1.900000         CONSTANT HEAD       1
      18       1       9     180       1.900000         CONSTANT HEAD       1
      19       1      10       1       1.900000         CONSTANT HEAD       1
      20       1      10     180       1.900000         CONSTANT HEAD       1
      21       1      11       1       1.900000         CONSTANT HEAD       1
      22       1      11     180       1.900000         CONSTANT HEAD       1
      23       1      12       1       1.900000         CONSTANT HEAD       1
      24       1      12     180       1.900000         CONSTANT HEAD       1
      25       1      13       1       1.900000         CONSTANT HEAD       1
      26       1      13     180       1.900000         CONSTANT HEAD       1
      27       1      14       1       1.900000         CONSTANT HEAD       1
      28       1      14     180       1.900000         CONSTANT HEAD       1
      29       1      15       1       1.900000         CONSTANT HEAD       1
      30       1      15     180       1.900000         CONSTANT HEAD       1
      31       1      16       1       1.900000         CONSTANT HEAD       1
      32       1      16     180       1.900000         CONSTANT HEAD       1
      33       1      17       1       1.900000         CONSTANT HEAD       1
      34       1      17     180       1.900000         CONSTANT HEAD       1
      35       1      18       1       1.900000         CONSTANT HEAD       1
      36       1      18     180       1.900000         CONSTANT HEAD       1
      37       1      19       1       1.900000         CONSTANT HEAD       1
      38       1      19     180       1.900000         CONSTANT HEAD       1
      39       1      20       1       1.900000         CONSTANT HEAD       1
      40       1      20     180       1.900000         CONSTANT HEAD       1
      41       1      21       1       1.900000         CONSTANT HEAD       1
      42       1      21     180       1.900000         CONSTANT HEAD       1
      43       1      22       1       1.900000         CONSTANT HEAD       1
      44       1      22     180       1.900000         CONSTANT HEAD       1
      45       1      23       1       1.900000         CONSTANT HEAD       1
      46       1      23     180       1.900000         CONSTANT HEAD       1
      47       1      24       1       1.900000         CONSTANT HEAD       1
      48       1      24     180       1.900000         CONSTANT HEAD       1
      49       1      25       1       1.900000         CONSTANT HEAD       1
      50       1      25     180       1.900000         CONSTANT HEAD       1
      51       1      26       1       1.900000         CONSTANT HEAD       1
      52       1      26     180       1.900000         CONSTANT HEAD       1
      53       1      27       1       1.900000         CONSTANT HEAD       1
      54       1      27     180       1.900000         CONSTANT HEAD       1
      55       1      28       1       1.900000         CONSTANT HEAD       1
      56       1      28     180       1.900000         CONSTANT HEAD       1
      57       1      29       1       1.900000         CONSTANT HEAD       1
      58       1      29     180       1.900000         CONSTANT HEAD       1
      59       1      30       1       1.900000         CONSTANT HEAD       1
      60       1      30     180       1.900000         CONSTANT HEAD       1
      61       1      31       1       1.900000         CONSTANT HEAD       1
      62       1      31     180       1.900000         CONSTANT HEAD       1
      63       1      32       1       1.900000         CONSTANT HEAD       1
      64       1      32     180       1.900000         CONSTANT HEAD       1
      65       1      33       1       1.900000         CONSTANT HEAD       1
      66       1      33     180       1.900000         CONSTANT HEAD       1
      67       1      34       1       1.900000         CONSTANT HEAD       1
      68       1      34     180       1.900000         CONSTANT HEAD       1
      69       1      35       1       1.900000         CONSTANT HEAD       1
      70       1      35     180       1.900000         CONSTANT HEAD       1
      71       1      36       1       1.900000         CONSTANT HEAD       1
      72       1      36     180       1.900000         CONSTANT HEAD       1
      73       1      37       1       1.900000         CONSTANT HEAD       1
      74       1      37     180       1.900000         CONSTANT HEAD       1
      75       1      38       1       1.900000         CONSTANT HEAD       1
      76       1      38     180       1.900000         CONSTANT HEAD       1
      77       1      39       1       1.900000         CONSTANT HEAD       1
      78       1      39     180       1.900000         CONSTANT HEAD       1
      79       1      40       1       1.900000         CONSTANT HEAD       1
      80       1      40     180       1.900000         CONSTANT HEAD       1
      81       1      41       1       1.900000         CONSTANT HEAD       1
      82       1      41     180       1.900000         CONSTANT HEAD       1
      83       1      42       1       1.900000         CONSTANT HEAD       1
      84       1      42     180       1.900000         CONSTANT HEAD       1
      85       1      43       1       1.900000         CONSTANT HEAD       1
      86       1      43     180       1.900000         CONSTANT HEAD       1
      87       1      44       1       1.900000         CONSTANT HEAD       1
      88       1      44     180       1.900000         CONSTANT HEAD       1
      89       1      45       1       1.900000         CONSTANT HEAD       1
      90       1      45     180       1.900000         CONSTANT HEAD       1
      91       1      46       1       1.900000         CONSTANT HEAD       1
      92       1      46     180       1.900000         CONSTANT HEAD       1
      93       1      47       1       1.900000         CONSTANT HEAD       1
      94       1      47     180       1.900000         CONSTANT HEAD       1
      95       1      48       1       1.900000         CONSTANT HEAD       1
      96       1      48     180       1.900000         CONSTANT HEAD       1
      97       1      49       1       1.900000         CONSTANT HEAD       1
      98       1      49     180       1.900000         CONSTANT HEAD       1
      99       1      50       1       1.900000         CONSTANT HEAD       1
     100       1      50     180       1.900000         CONSTANT HEAD       1
     101       1      51       1       1.900000         CONSTANT HEAD       1
     102       1      51     180       1.900000         CONSTANT HEAD       1
     103       1      52       1       1.900000         CONSTANT HEAD       1
     104       1      52     180       1.900000         CONSTANT HEAD       1
     105       1      53       1       1.900000         CONSTANT HEAD       1
     106       1      53     180       1.900000         CONSTANT HEAD       1
     107       1      54       1       1.900000         CONSTANT HEAD       1
     108       1      54     180       1.900000         CONSTANT HEAD       1
     109       1      55       1       1.900000         CONSTANT HEAD       1
     110       1      55     180       1.900000         CONSTANT HEAD       1
     111       1      56       1       1.900000         CONSTANT HEAD       1
     112       1      56     180       1.900000         CONSTANT HEAD       1
     113       1      57       1       1.900000         CONSTANT HEAD       1
     114       1      57     180       1.900000         CONSTANT HEAD       1
     115       1      58       1       1.900000         CONSTANT HEAD       1
     116       1      58     180       1.900000         CONSTANT HEAD       1
     117       1      59       1       1.900000         CONSTANT HEAD       1
     118       1      59     180       1.900000         CONSTANT HEAD       1
     119       1      60       1       1.900000         CONSTANT HEAD       1
     120       1      60     180       1.900000         CONSTANT HEAD       1
     121       1      61       1       1.900000         CONSTANT HEAD       1
     122       1      61     180       1.900000         CONSTANT HEAD       1
     123       1      62       1       1.900000         CONSTANT HEAD       1
     124       1      62     180       1.900000         CONSTANT HEAD       1
     125       1      63       1       1.900000         CONSTANT HEAD       1
     126       1      63     180       1.900000         CONSTANT HEAD       1
     127       1      64       1       1.900000         CONSTANT HEAD       1
     128       1      64     180       1.900000         CONSTANT HEAD       1
     129       1      65       1       1.900000         CONSTANT HEAD       1
     130       1      65     180       1.900000         CONSTANT HEAD       1
     131       1      66       1       1.900000         CONSTANT HEAD       1
     132       1      66     180       1.900000         CONSTANT HEAD       1
     133       1      67       1       1.900000         CONSTANT HEAD       1
     134       1      67     180       1.900000         CONSTANT HEAD       1
     135       1      68       1       1.900000         CONSTANT HEAD       1
     136       1      68     180       1.900000         CONSTANT HEAD       1
     137       1      69       1       1.900000         CONSTANT HEAD       1
     138       1      69     180       1.900000         CONSTANT HEAD       1
     139       1      70       1       1.900000         CONSTANT HEAD       1
     140       1      70     180       1.900000         CONSTANT HEAD       1
     141       1      71       1       1.900000         CONSTANT HEAD       1
     142       1      71     180       1.900000         CONSTANT HEAD       1
     143       1      72       1       1.900000         CONSTANT HEAD       1
     144       1      72     180       1.900000         CONSTANT HEAD       1
     145       1      73       1       1.900000         CONSTANT HEAD       1
     146       1      73     180       1.900000         CONSTANT HEAD       1
     147       1      74       1       1.900000         CONSTANT HEAD       1
     148       1      74     180       1.900000         CONSTANT HEAD       1
     149       1      75       1       1.900000         CONSTANT HEAD       1
     150       1      75     180       1.900000         CONSTANT HEAD       1
     151       1      76       1       1.900000         CONSTANT HEAD       1
     152       1      76     180       1.900000         CONSTANT HEAD       1
     153       1      77       1       1.900000         CONSTANT HEAD       1
     154       1      77     180       1.900000         CONSTANT HEAD       1
     155       1      78       1       1.900000         CONSTANT HEAD       1
     156       1      78     180       1.900000         CONSTANT HEAD       1
     157       1      79       1       1.900000         CONSTANT HEAD       1
     158       1      79     180       1.900000         CONSTANT HEAD       1
     159       1      80       1       1.900000         CONSTANT HEAD       1
     160       1      80     180       1.900000         CONSTANT HEAD       1
     161       1      81       1       1.900000         CONSTANT HEAD       1
     162       1      81     180       1.900000         CONSTANT HEAD       1
     163       1      82       1       1.900000         CONSTANT HEAD       1
     164       1      82     180       1.900000         CONSTANT HEAD       1
     165       1      83       1       1.900000         CONSTANT HEAD       1
     166       1      83     180       1.900000         CONSTANT HEAD       1
     167       1      84       1       1.900000         CONSTANT HEAD       1
     168       1      84     180       1.900000         CONSTANT HEAD       1
     169       1      85       1       1.900000         CONSTANT HEAD       1
     170       1      85     180       1.900000         CONSTANT HEAD       1
     171       1      86       1       1.900000         CONSTANT HEAD       1
     172       1      86     180       1.900000         CONSTANT HEAD       1
     173       1      87       1       1.900000         CONSTANT HEAD       1
     174       1      87     180       1.900000         CONSTANT HEAD       1
     175       1      88       1       1.900000         CONSTANT HEAD       1
     176       1      88     180       1.900000         CONSTANT HEAD       1
     177       1      89       1       1.900000         CONSTANT HEAD       1
     178       1      89     180       1.900000         CONSTANT HEAD       1
     179       1      90       1       1.900000         CONSTANT HEAD       1
     180       1      90     180       1.900000         CONSTANT HEAD       1
     181       1      91       1       1.900000         CONSTANT HEAD       1
     182       1      91     180       1.900000         CONSTANT HEAD       1
     183       1      92       1       1.900000         CONSTANT HEAD       1
     184       1      92     180       1.900000         CONSTANT HEAD       1
     185       1      93       1       1.900000         CONSTANT HEAD       1
     186       1      93     180       1.900000         CONSTANT HEAD       1
     187       1      94       1       1.900000         CONSTANT HEAD       1
     188       1      94     180       1.900000         CONSTANT HEAD       1
     189       1      95       1       1.900000         CONSTANT HEAD       1
     190       1      95     180       1.900000         CONSTANT HEAD       1
     191       1      96       1       1.900000         CONSTANT HEAD       1
     192       1      96     180       1.900000         CONSTANT HEAD       1
     193       1      97       1       1.900000         CONSTANT HEAD       1
     194       1      97     180       1.900000         CONSTANT HEAD       1
     195       1      98       1       1.900000         CONSTANT HEAD       1
     196       1      98     180       1.900000         CONSTANT HEAD       1
     197       1      99       1       1.900000         CONSTANT HEAD       1
     198       1      99     180       1.900000         CONSTANT HEAD       1
     199       1     100       1       1.900000         CONSTANT HEAD       1
     200       1     100     180       1.900000         CONSTANT HEAD       1
     201       1     101       1       1.900000         CONSTANT HEAD       1
     202       1     101     180       1.900000         CONSTANT HEAD       1
     203       1     102       1       1.900000         CONSTANT HEAD       1
     204       1     102     180       1.900000         CONSTANT HEAD       1
     205       1     103       1       1.900000         CONSTANT HEAD       1
     206       1     103     180       1.900000         CONSTANT HEAD       1
     207       1     104       1       1.900000         CONSTANT HEAD       1
     208       1     104     180       1.900000         CONSTANT HEAD       1
     209       1     105       1       1.900000         CONSTANT HEAD       1
     210       1     105     180       1.900000         CONSTANT HEAD       1
     211       1     106       1       1.900000         CONSTANT HEAD       1
     212       1     106     180       1.900000         CONSTANT HEAD       1
     213       1     107       1       1.900000         CONSTANT HEAD       1
     214       1     107     180       1.900000         CONSTANT HEAD       1
     215       1     108       1       1.900000         CONSTANT HEAD       1
     216       1     108     180       1.900000         CONSTANT HEAD       1
     217       1     109       1       1.900000         CONSTANT HEAD       1
     218       1     109     180       1.900000         CONSTANT HEAD       1
     219       1     110       1       1.900000         CONSTANT HEAD       1
     220       1     110     180       1.900000         CONSTANT HEAD       1
     221       1     111       1       1.900000         CONSTANT HEAD       1
     222       1     111     180       1.900000         CONSTANT HEAD       1
     223       1     112       1       1.900000         CONSTANT HEAD       1
     224       1     112     180       1.900000         CONSTANT HEAD       1
     225       1     113       1       1.900000         CONSTANT HEAD       1
     226       1     113     180       1.900000         CONSTANT HEAD       1
     227       1     114       1       1.900000         CONSTANT HEAD       1
     228       1     114     180       1.900000         CONSTANT HEAD       1
     229       1     115       1       1.900000         CONSTANT HEAD       1
     230       1     115     180       1.900000         CONSTANT HEAD       1
     231       1     116       1       1.900000         CONSTANT HEAD       1
     232       1     116     180       1.900000         CONSTANT HEAD       1
     233       1     117       1       1.900000         CONSTANT HEAD       1
     234       1     117     180       1.900000         CONSTANT HEAD       1
     235       1     118       1       1.900000         CONSTANT HEAD       1
     236       1     118     180       1.900000         CONSTANT HEAD       1
     237       1     119       1       1.900000         CONSTANT HEAD       1
     238       1     119     180       1.900000         CONSTANT HEAD       1
     239       1     120       1       1.900000         CONSTANT HEAD       1
     240       1     120     180       1.900000         CONSTANT HEAD       1
     241       1     121       1       1.900000         CONSTANT HEAD       1
     242       1     121     180       1.900000         CONSTANT HEAD       1
     243       1     122       1       1.900000         CONSTANT HEAD       1
     244       1     122     180       1.900000         CONSTANT HEAD       1
     245       1     123       1       1.900000         CONSTANT HEAD       1
     246       1     123     180       1.900000         CONSTANT HEAD       1
     247       1     124       1       1.900000         CONSTANT HEAD       1
     248       1     124     180       1.900000         CONSTANT HEAD       1
     249       1     125       1       1.900000         CONSTANT HEAD       1
     250       1     125     180       1.900000         CONSTANT HEAD       1
     251       1     126       1       1.900000         CONSTANT HEAD       1
     252       1     126     180       1.900000         CONSTANT HEAD       1
     253       1     127       1       1.900000         CONSTANT HEAD       1
     254       1     127     180       1.900000         CONSTANT HEAD       1
     255       1     128       1       1.900000         CONSTANT HEAD       1
     256       1     128     180       1.900000         CONSTANT HEAD       1
     257       1     129       1       1.900000         CONSTANT HEAD       1
     258       1     129     180       1.900000         CONSTANT HEAD       1
     259       1     130       1       1.900000         CONSTANT HEAD       1
     260       1     130     180       1.900000         CONSTANT HEAD       1
     261       1     131       1       1.900000         CONSTANT HEAD       1
     262       1     131     180       1.900000         CONSTANT HEAD       1
     263       1     132       1       1.900000         CONSTANT HEAD       1
     264       1     132     180       1.900000         CONSTANT HEAD       1
     265       1     133       1       1.900000         CONSTANT HEAD       1
     266       1     133     180       1.900000         CONSTANT HEAD       1
     267       1     134       1       1.900000         CONSTANT HEAD       1
     268       1     134     180       1.900000         CONSTANT HEAD       1
     269       1     135       1       1.900000         CONSTANT HEAD       1
     270       1     135     180       1.900000         CONSTANT HEAD       1
     271       1     136       1       1.900000         CONSTANT HEAD       1
     272       1     136     180       1.900000         CONSTANT HEAD       1
     273       1     137       1       1.900000         CONSTANT HEAD       1
     274       1     137     180       1.900000         CONSTANT HEAD       1
     275       1     138       1       1.900000         CONSTANT HEAD       1
     276       1     138     180       1.900000         CONSTANT HEAD       1
     277       1     139       1       1.900000         CONSTANT HEAD       1
     278       1     139     180       1.900000         CONSTANT HEAD       1
     279       1     140       1       1.900000         CONSTANT HEAD       1
     280       1     140     180       1.900000         CONSTANT HEAD       1
     281       1     141       1       1.900000         CONSTANT HEAD       1
     282       1     141     180       1.900000         CONSTANT HEAD       1
     283       1     142       1       1.900000         CONSTANT HEAD       1
     284       1     142     180       1.900000         CONSTANT HEAD       1
     285       1     143       1       1.900000         CONSTANT HEAD       1
     286       1     143     180       1.900000         CONSTANT HEAD       1
     287       1     144       1       1.900000         CONSTANT HEAD       1
     288       1     144     180       1.900000         CONSTANT HEAD       1
     289       1     145       1       1.900000         CONSTANT HEAD       1
     290       1     145     180       1.900000         CONSTANT HEAD       1
     291       1     146       1       1.900000         CONSTANT HEAD       1
     292       1     146     180       1.900000         CONSTANT HEAD       1
     293       1     147       1       1.900000         CONSTANT HEAD       1
     294       1     147     180       1.900000         CONSTANT HEAD       1
     295       1     148       1       1.900000         CONSTANT HEAD       1
     296       1     148     180       1.900000         CONSTANT HEAD       1
     297       1     149       1       1.900000         CONSTANT HEAD       1
     298       1     149     180       1.900000         CONSTANT HEAD       1
     299       1     150       1       1.900000         CONSTANT HEAD       1
     300       1     150     180       1.900000         CONSTANT HEAD       1
     301       1     151       1       1.900000         CONSTANT HEAD       1
     302       1     151     180       1.900000         CONSTANT HEAD       1
     303       1     152       1       1.900000         CONSTANT HEAD       1
     304       1     152     180       1.900000         CONSTANT HEAD       1
     305       1     153       1       1.900000         CONSTANT HEAD       1
     306       1     153     180       1.900000         CONSTANT HEAD       1
     307       1     154       1       1.900000         CONSTANT HEAD       1
     308       1     154     180       1.900000         CONSTANT HEAD       1
     309       1     155       1       1.900000         CONSTANT HEAD       1
     310       1     155     180       1.900000         CONSTANT HEAD       1
     311       1     156       1       1.900000         CONSTANT HEAD       1
     312       1     156     180       1.900000         CONSTANT HEAD       1
     313       1     157       1       1.900000         CONSTANT HEAD       1
     314       1     157     180       1.900000         CONSTANT HEAD       1
     315       1     158       1       1.900000         CONSTANT HEAD       1
     316       1     158     180       1.900000         CONSTANT HEAD       1
     317       1     159       1       1.900000         CONSTANT HEAD       1
     318       1     159     180       1.900000         CONSTANT HEAD       1
     319       1     160       1       1.900000         CONSTANT HEAD       1
     320       1     160     180       1.900000         CONSTANT HEAD       1
     321       1     161       1       1.900000         CONSTANT HEAD       1
     322       1     161     180       1.900000         CONSTANT HEAD       1
     323       1     162       1       1.900000         CONSTANT HEAD       1
     324       1     162     180       1.900000         CONSTANT HEAD       1
     325       1     163       1       1.900000         CONSTANT HEAD       1
     326       1     163     180       1.900000         CONSTANT HEAD       1
     327       1     164       1       1.900000         CONSTANT HEAD       1
     328       1     164     180       1.900000         CONSTANT HEAD       1
     329       1     165       1       1.900000         CONSTANT HEAD       1
     330       1     165     180       1.900000         CONSTANT HEAD       1
     331       1     166       1       1.900000         CONSTANT HEAD       1
     332       1     166     180       1.900000         CONSTANT HEAD       1
     333       1     167       1       1.900000         CONSTANT HEAD       1
     334       1     167     180       1.900000         CONSTANT HEAD       1
     335       1     168       1       1.900000         CONSTANT HEAD       1
     336       1     168     180       1.900000         CONSTANT HEAD       1
     337       1     169       1       1.900000         CONSTANT HEAD       1
     338       1     169     180       1.900000         CONSTANT HEAD       1
     339       1     170       1       1.900000         CONSTANT HEAD       1
     340       1     170     180       1.900000         CONSTANT HEAD       1
     341       1     171       1       1.900000         CONSTANT HEAD       1
     342       1     171     180       1.900000         CONSTANT HEAD       1
     343       1     172       1       1.900000         CONSTANT HEAD       1
     344       1     172     180       1.900000         CONSTANT HEAD       1
     345       1     173       1       1.900000         CONSTANT HEAD       1
     346       1     173     180       1.900000         CONSTANT HEAD       1
     347       1     174       1       1.900000         CONSTANT HEAD       1
     348       1     174     180       1.900000         CONSTANT HEAD       1
     349       1     175       1       1.900000         CONSTANT HEAD       1
     350       1     175     180       1.900000         CONSTANT HEAD       1
     351       1     176       1       1.900000         CONSTANT HEAD       1
     352       1     176     180       1.900000         CONSTANT HEAD       1
     353       1     177       1       1.900000         CONSTANT HEAD       1
     354       1     177     180       1.900000         CONSTANT HEAD       1
     355       1     178       1       1.900000         CONSTANT HEAD       1
     356       1     178     180       1.900000         CONSTANT HEAD       1
     357       1     179       1       1.900000         CONSTANT HEAD       1
     358       1     179     180       1.900000         CONSTANT HEAD       1
     359       1     180       1       1.900000         CONSTANT HEAD       1
     360       1     180     180       1.900000         CONSTANT HEAD       1
     361       1      91      91      0.1500000         WELL                1


                                          ================================================
                                                         TIME STEP NO.  001
                                          ================================================

 FROM TIME =   540.00     TO    570.00    


                    "THKSAT          " FLOW TERMS FOR TIME STEP  1, STRESS PERIOD 19 READ UNFORMATTED ON UNIT 10
                    --------------------------------------------------------------------------------------------

                    "QXX             " FLOW TERMS FOR TIME STEP  1, STRESS PERIOD 19 READ UNFORMATTED ON UNIT 10
                    --------------------------------------------------------------------------------------------

                    "QYY             " FLOW TERMS FOR TIME STEP  1, STRESS PERIOD 19 READ UNFORMATTED ON UNIT 10
                    --------------------------------------------------------------------------------------------

                    "STO             " FLOW TERMS FOR TIME STEP  1, STRESS PERIOD 19 READ UNFORMATTED ON UNIT 10
                    --------------------------------------------------------------------------------------------

 MAXIMUM STEPSIZE DURING WHICH ANY PARTICLE CANNOT MOVE MORE THAN ONE CELL
 =  1.283    (WHEN MIN. R.F.=1)  AT K=   1, I=  91, J=  92

 MAXIMUM STEPSIZE WHICH MEETS STABILITY CRITERION OF THE ADVECTION TERM
 (FOR PURE FINITE-DIFFERENCE OPTION, MIXELM=0) 
 = 0.4672    (WHEN MIN. R.F.=1)  AT K=   1, I=  91, J=  91

                    "CNH             " FLOW TERMS FOR TIME STEP  1, STRESS PERIOD 19 READ UNFORMATTED ON UNIT 10
                    --------------------------------------------------------------------------------------------

                    "WEL             " FLOW TERMS FOR TIME STEP  1, STRESS PERIOD 19 READ UNFORMATTED ON UNIT 10
                    --------------------------------------------------------------------------------------------


 TOTAL NUMBER OF POINT SOURCES/SINKS PRESENT IN THE FLOW MODEL =   361

 MAXIMUM STEPSIZE WHICH MEETS STABILITY CRITERION OF THE SINK & SOURCE TERM
 = 0.6803E+05(WHEN MIN. R.F.=1)  AT K=   1, I=  90, J= 180

 MAXIMUM STEPSIZE WHICH MEETS STABILITY CRITERION OF THE DISPERSION TERM
 = 0.2336    (WHEN MIN. R.F.=1)  AT K=   1, I=  91, J=  91


     1 CALLS TO GCG PACKAGE FOR TRANSPORT TIME STEP     1 IN FLOW TIME STEP     1 STRESS PERIOD    19
      7 TOTAL ITERATIONS
  MAXIMUM CONCENTRATION CHANGES FOR EACH ITERATION:
  MAX. CHANGE LAYER,ROW,COL MAX. CHANGE LAYER,ROW,COL MAX. CHANGE LAYER,ROW,COL MAX. CHANGE LAYER,ROW,COL MAX. CHANGE LAYER,ROW,COL
 ------------------------------------------------------------------------------------------------------------------------------------
   0.2446     (  1, 91, 91)  0.1711E-01 (  1, 90, 92)  0.3931E-02 (  1, 91, 91)  0.6332E-03 (  1, 92, 92)  0.7769E-04 (  1, 93, 91)
   0.2250E-04 (  1, 91, 91)  0.8434E-05 (  1, 91, 91)



 >>>>>>>>>>>>>>>>>>>>>>>>>>>>>>>>>>>>>>>>>>>>>>>>>>>>>>>FOR COMPONENT NO. 01<<<<<<<<<<<<<<<<<<<<<<<<<<<<<<<<<<<<<<<<<<<<<<<<<<<<<<<


                                            -------------------------------------------
                                                      TRANSPORT STEP NO.    1
                                            -------------------------------------------

 TOTAL ELAPSED TIME SINCE BEGINNING OF SIMULATION =   570.0000    D   
 .....................................................................

                     CUMULATIVE MASS BUDGETS AT END OF TRANSPORT STEP    1, TIME STEP    1, STRESS PERIOD   19
                     -----------------------------------------------------------------------------------------

                                                             IN                           OUT
                                                      ----------------             ----------------
                               CONSTANT CONCENTRATION:    0.000000                    0.000000    
                                        CONSTANT HEAD:    3765195.                   -3920012.    
                                                WELLS:    76840.10                   -216591.8    
                               MASS STOR (FLOW MODEL):    3167677.                   -3251606.    
                                MASS STORAGE (SOLUTE):    888932.1                   -509740.3    
                            ---------------------------------------------------------------------------
                                              [TOTAL]:    7898644.     KG            -7897950.     KG  

                                                          NET (IN - OUT):    694.5000    
                                                   DISCREPANCY (PERCENT):   0.8793035E-02


                                   ++++++++++++++++++++++++++++++++++++++++++++++++++++++++++++++
                                                       STRESS PERIOD NO.  020
                                   ++++++++++++++++++++++++++++++++++++++++++++++++++++++++++++++


 LENGTH OF CURRENT STRESS PERIOD =   30.00000    
 NUMBER OF TIME STEPS FOR CURRENT STRESS PERIOD =    1
 TIME STEP MULTIPLIER USED IN FLOW SOLUTION =   1.000000    

 ***Type of Transport Simulation is TRANSIENT

 USER-SPECIFIED TRANSPORT STEPSIZE =   30.00000    D   
 MAXIMUM NUMBER OF TRANSPORT STEPS ALLOWED  IN ONE FLOW TIME STEP =     50000
 MULTIPLIER FOR SUCCESSIVE TRANSPORT STEPS  [USED IN IMPLICIT SCHEMES] =     1.000
 MAXIMUM TRANSPORT STEP SIZE  [USED IN IMPLICIT SCHEMES] =   0.000000    D   

       NO    LAYER   ROW   COLUMN   CONCENTRATION       TYPE            COMPONENT
       1       1       1       1       1.900000         CONSTANT HEAD       1
       2       1       1     180       1.900000         CONSTANT HEAD       1
       3       1       2       1       1.900000         CONSTANT HEAD       1
       4       1       2     180       1.900000         CONSTANT HEAD       1
       5       1       3       1       1.900000         CONSTANT HEAD       1
       6       1       3     180       1.900000         CONSTANT HEAD       1
       7       1       4       1       1.900000         CONSTANT HEAD       1
       8       1       4     180       1.900000         CONSTANT HEAD       1
       9       1       5       1       1.900000         CONSTANT HEAD       1
      10       1       5     180       1.900000         CONSTANT HEAD       1
      11       1       6       1       1.900000         CONSTANT HEAD       1
      12       1       6     180       1.900000         CONSTANT HEAD       1
      13       1       7       1       1.900000         CONSTANT HEAD       1
      14       1       7     180       1.900000         CONSTANT HEAD       1
      15       1       8       1       1.900000         CONSTANT HEAD       1
      16       1       8     180       1.900000         CONSTANT HEAD       1
      17       1       9       1       1.900000         CONSTANT HEAD       1
      18       1       9     180       1.900000         CONSTANT HEAD       1
      19       1      10       1       1.900000         CONSTANT HEAD       1
      20       1      10     180       1.900000         CONSTANT HEAD       1
      21       1      11       1       1.900000         CONSTANT HEAD       1
      22       1      11     180       1.900000         CONSTANT HEAD       1
      23       1      12       1       1.900000         CONSTANT HEAD       1
      24       1      12     180       1.900000         CONSTANT HEAD       1
      25       1      13       1       1.900000         CONSTANT HEAD       1
      26       1      13     180       1.900000         CONSTANT HEAD       1
      27       1      14       1       1.900000         CONSTANT HEAD       1
      28       1      14     180       1.900000         CONSTANT HEAD       1
      29       1      15       1       1.900000         CONSTANT HEAD       1
      30       1      15     180       1.900000         CONSTANT HEAD       1
      31       1      16       1       1.900000         CONSTANT HEAD       1
      32       1      16     180       1.900000         CONSTANT HEAD       1
      33       1      17       1       1.900000         CONSTANT HEAD       1
      34       1      17     180       1.900000         CONSTANT HEAD       1
      35       1      18       1       1.900000         CONSTANT HEAD       1
      36       1      18     180       1.900000         CONSTANT HEAD       1
      37       1      19       1       1.900000         CONSTANT HEAD       1
      38       1      19     180       1.900000         CONSTANT HEAD       1
      39       1      20       1       1.900000         CONSTANT HEAD       1
      40       1      20     180       1.900000         CONSTANT HEAD       1
      41       1      21       1       1.900000         CONSTANT HEAD       1
      42       1      21     180       1.900000         CONSTANT HEAD       1
      43       1      22       1       1.900000         CONSTANT HEAD       1
      44       1      22     180       1.900000         CONSTANT HEAD       1
      45       1      23       1       1.900000         CONSTANT HEAD       1
      46       1      23     180       1.900000         CONSTANT HEAD       1
      47       1      24       1       1.900000         CONSTANT HEAD       1
      48       1      24     180       1.900000         CONSTANT HEAD       1
      49       1      25       1       1.900000         CONSTANT HEAD       1
      50       1      25     180       1.900000         CONSTANT HEAD       1
      51       1      26       1       1.900000         CONSTANT HEAD       1
      52       1      26     180       1.900000         CONSTANT HEAD       1
      53       1      27       1       1.900000         CONSTANT HEAD       1
      54       1      27     180       1.900000         CONSTANT HEAD       1
      55       1      28       1       1.900000         CONSTANT HEAD       1
      56       1      28     180       1.900000         CONSTANT HEAD       1
      57       1      29       1       1.900000         CONSTANT HEAD       1
      58       1      29     180       1.900000         CONSTANT HEAD       1
      59       1      30       1       1.900000         CONSTANT HEAD       1
      60       1      30     180       1.900000         CONSTANT HEAD       1
      61       1      31       1       1.900000         CONSTANT HEAD       1
      62       1      31     180       1.900000         CONSTANT HEAD       1
      63       1      32       1       1.900000         CONSTANT HEAD       1
      64       1      32     180       1.900000         CONSTANT HEAD       1
      65       1      33       1       1.900000         CONSTANT HEAD       1
      66       1      33     180       1.900000         CONSTANT HEAD       1
      67       1      34       1       1.900000         CONSTANT HEAD       1
      68       1      34     180       1.900000         CONSTANT HEAD       1
      69       1      35       1       1.900000         CONSTANT HEAD       1
      70       1      35     180       1.900000         CONSTANT HEAD       1
      71       1      36       1       1.900000         CONSTANT HEAD       1
      72       1      36     180       1.900000         CONSTANT HEAD       1
      73       1      37       1       1.900000         CONSTANT HEAD       1
      74       1      37     180       1.900000         CONSTANT HEAD       1
      75       1      38       1       1.900000         CONSTANT HEAD       1
      76       1      38     180       1.900000         CONSTANT HEAD       1
      77       1      39       1       1.900000         CONSTANT HEAD       1
      78       1      39     180       1.900000         CONSTANT HEAD       1
      79       1      40       1       1.900000         CONSTANT HEAD       1
      80       1      40     180       1.900000         CONSTANT HEAD       1
      81       1      41       1       1.900000         CONSTANT HEAD       1
      82       1      41     180       1.900000         CONSTANT HEAD       1
      83       1      42       1       1.900000         CONSTANT HEAD       1
      84       1      42     180       1.900000         CONSTANT HEAD       1
      85       1      43       1       1.900000         CONSTANT HEAD       1
      86       1      43     180       1.900000         CONSTANT HEAD       1
      87       1      44       1       1.900000         CONSTANT HEAD       1
      88       1      44     180       1.900000         CONSTANT HEAD       1
      89       1      45       1       1.900000         CONSTANT HEAD       1
      90       1      45     180       1.900000         CONSTANT HEAD       1
      91       1      46       1       1.900000         CONSTANT HEAD       1
      92       1      46     180       1.900000         CONSTANT HEAD       1
      93       1      47       1       1.900000         CONSTANT HEAD       1
      94       1      47     180       1.900000         CONSTANT HEAD       1
      95       1      48       1       1.900000         CONSTANT HEAD       1
      96       1      48     180       1.900000         CONSTANT HEAD       1
      97       1      49       1       1.900000         CONSTANT HEAD       1
      98       1      49     180       1.900000         CONSTANT HEAD       1
      99       1      50       1       1.900000         CONSTANT HEAD       1
     100       1      50     180       1.900000         CONSTANT HEAD       1
     101       1      51       1       1.900000         CONSTANT HEAD       1
     102       1      51     180       1.900000         CONSTANT HEAD       1
     103       1      52       1       1.900000         CONSTANT HEAD       1
     104       1      52     180       1.900000         CONSTANT HEAD       1
     105       1      53       1       1.900000         CONSTANT HEAD       1
     106       1      53     180       1.900000         CONSTANT HEAD       1
     107       1      54       1       1.900000         CONSTANT HEAD       1
     108       1      54     180       1.900000         CONSTANT HEAD       1
     109       1      55       1       1.900000         CONSTANT HEAD       1
     110       1      55     180       1.900000         CONSTANT HEAD       1
     111       1      56       1       1.900000         CONSTANT HEAD       1
     112       1      56     180       1.900000         CONSTANT HEAD       1
     113       1      57       1       1.900000         CONSTANT HEAD       1
     114       1      57     180       1.900000         CONSTANT HEAD       1
     115       1      58       1       1.900000         CONSTANT HEAD       1
     116       1      58     180       1.900000         CONSTANT HEAD       1
     117       1      59       1       1.900000         CONSTANT HEAD       1
     118       1      59     180       1.900000         CONSTANT HEAD       1
     119       1      60       1       1.900000         CONSTANT HEAD       1
     120       1      60     180       1.900000         CONSTANT HEAD       1
     121       1      61       1       1.900000         CONSTANT HEAD       1
     122       1      61     180       1.900000         CONSTANT HEAD       1
     123       1      62       1       1.900000         CONSTANT HEAD       1
     124       1      62     180       1.900000         CONSTANT HEAD       1
     125       1      63       1       1.900000         CONSTANT HEAD       1
     126       1      63     180       1.900000         CONSTANT HEAD       1
     127       1      64       1       1.900000         CONSTANT HEAD       1
     128       1      64     180       1.900000         CONSTANT HEAD       1
     129       1      65       1       1.900000         CONSTANT HEAD       1
     130       1      65     180       1.900000         CONSTANT HEAD       1
     131       1      66       1       1.900000         CONSTANT HEAD       1
     132       1      66     180       1.900000         CONSTANT HEAD       1
     133       1      67       1       1.900000         CONSTANT HEAD       1
     134       1      67     180       1.900000         CONSTANT HEAD       1
     135       1      68       1       1.900000         CONSTANT HEAD       1
     136       1      68     180       1.900000         CONSTANT HEAD       1
     137       1      69       1       1.900000         CONSTANT HEAD       1
     138       1      69     180       1.900000         CONSTANT HEAD       1
     139       1      70       1       1.900000         CONSTANT HEAD       1
     140       1      70     180       1.900000         CONSTANT HEAD       1
     141       1      71       1       1.900000         CONSTANT HEAD       1
     142       1      71     180       1.900000         CONSTANT HEAD       1
     143       1      72       1       1.900000         CONSTANT HEAD       1
     144       1      72     180       1.900000         CONSTANT HEAD       1
     145       1      73       1       1.900000         CONSTANT HEAD       1
     146       1      73     180       1.900000         CONSTANT HEAD       1
     147       1      74       1       1.900000         CONSTANT HEAD       1
     148       1      74     180       1.900000         CONSTANT HEAD       1
     149       1      75       1       1.900000         CONSTANT HEAD       1
     150       1      75     180       1.900000         CONSTANT HEAD       1
     151       1      76       1       1.900000         CONSTANT HEAD       1
     152       1      76     180       1.900000         CONSTANT HEAD       1
     153       1      77       1       1.900000         CONSTANT HEAD       1
     154       1      77     180       1.900000         CONSTANT HEAD       1
     155       1      78       1       1.900000         CONSTANT HEAD       1
     156       1      78     180       1.900000         CONSTANT HEAD       1
     157       1      79       1       1.900000         CONSTANT HEAD       1
     158       1      79     180       1.900000         CONSTANT HEAD       1
     159       1      80       1       1.900000         CONSTANT HEAD       1
     160       1      80     180       1.900000         CONSTANT HEAD       1
     161       1      81       1       1.900000         CONSTANT HEAD       1
     162       1      81     180       1.900000         CONSTANT HEAD       1
     163       1      82       1       1.900000         CONSTANT HEAD       1
     164       1      82     180       1.900000         CONSTANT HEAD       1
     165       1      83       1       1.900000         CONSTANT HEAD       1
     166       1      83     180       1.900000         CONSTANT HEAD       1
     167       1      84       1       1.900000         CONSTANT HEAD       1
     168       1      84     180       1.900000         CONSTANT HEAD       1
     169       1      85       1       1.900000         CONSTANT HEAD       1
     170       1      85     180       1.900000         CONSTANT HEAD       1
     171       1      86       1       1.900000         CONSTANT HEAD       1
     172       1      86     180       1.900000         CONSTANT HEAD       1
     173       1      87       1       1.900000         CONSTANT HEAD       1
     174       1      87     180       1.900000         CONSTANT HEAD       1
     175       1      88       1       1.900000         CONSTANT HEAD       1
     176       1      88     180       1.900000         CONSTANT HEAD       1
     177       1      89       1       1.900000         CONSTANT HEAD       1
     178       1      89     180       1.900000         CONSTANT HEAD       1
     179       1      90       1       1.900000         CONSTANT HEAD       1
     180       1      90     180       1.900000         CONSTANT HEAD       1
     181       1      91       1       1.900000         CONSTANT HEAD       1
     182       1      91     180       1.900000         CONSTANT HEAD       1
     183       1      92       1       1.900000         CONSTANT HEAD       1
     184       1      92     180       1.900000         CONSTANT HEAD       1
     185       1      93       1       1.900000         CONSTANT HEAD       1
     186       1      93     180       1.900000         CONSTANT HEAD       1
     187       1      94       1       1.900000         CONSTANT HEAD       1
     188       1      94     180       1.900000         CONSTANT HEAD       1
     189       1      95       1       1.900000         CONSTANT HEAD       1
     190       1      95     180       1.900000         CONSTANT HEAD       1
     191       1      96       1       1.900000         CONSTANT HEAD       1
     192       1      96     180       1.900000         CONSTANT HEAD       1
     193       1      97       1       1.900000         CONSTANT HEAD       1
     194       1      97     180       1.900000         CONSTANT HEAD       1
     195       1      98       1       1.900000         CONSTANT HEAD       1
     196       1      98     180       1.900000         CONSTANT HEAD       1
     197       1      99       1       1.900000         CONSTANT HEAD       1
     198       1      99     180       1.900000         CONSTANT HEAD       1
     199       1     100       1       1.900000         CONSTANT HEAD       1
     200       1     100     180       1.900000         CONSTANT HEAD       1
     201       1     101       1       1.900000         CONSTANT HEAD       1
     202       1     101     180       1.900000         CONSTANT HEAD       1
     203       1     102       1       1.900000         CONSTANT HEAD       1
     204       1     102     180       1.900000         CONSTANT HEAD       1
     205       1     103       1       1.900000         CONSTANT HEAD       1
     206       1     103     180       1.900000         CONSTANT HEAD       1
     207       1     104       1       1.900000         CONSTANT HEAD       1
     208       1     104     180       1.900000         CONSTANT HEAD       1
     209       1     105       1       1.900000         CONSTANT HEAD       1
     210       1     105     180       1.900000         CONSTANT HEAD       1
     211       1     106       1       1.900000         CONSTANT HEAD       1
     212       1     106     180       1.900000         CONSTANT HEAD       1
     213       1     107       1       1.900000         CONSTANT HEAD       1
     214       1     107     180       1.900000         CONSTANT HEAD       1
     215       1     108       1       1.900000         CONSTANT HEAD       1
     216       1     108     180       1.900000         CONSTANT HEAD       1
     217       1     109       1       1.900000         CONSTANT HEAD       1
     218       1     109     180       1.900000         CONSTANT HEAD       1
     219       1     110       1       1.900000         CONSTANT HEAD       1
     220       1     110     180       1.900000         CONSTANT HEAD       1
     221       1     111       1       1.900000         CONSTANT HEAD       1
     222       1     111     180       1.900000         CONSTANT HEAD       1
     223       1     112       1       1.900000         CONSTANT HEAD       1
     224       1     112     180       1.900000         CONSTANT HEAD       1
     225       1     113       1       1.900000         CONSTANT HEAD       1
     226       1     113     180       1.900000         CONSTANT HEAD       1
     227       1     114       1       1.900000         CONSTANT HEAD       1
     228       1     114     180       1.900000         CONSTANT HEAD       1
     229       1     115       1       1.900000         CONSTANT HEAD       1
     230       1     115     180       1.900000         CONSTANT HEAD       1
     231       1     116       1       1.900000         CONSTANT HEAD       1
     232       1     116     180       1.900000         CONSTANT HEAD       1
     233       1     117       1       1.900000         CONSTANT HEAD       1
     234       1     117     180       1.900000         CONSTANT HEAD       1
     235       1     118       1       1.900000         CONSTANT HEAD       1
     236       1     118     180       1.900000         CONSTANT HEAD       1
     237       1     119       1       1.900000         CONSTANT HEAD       1
     238       1     119     180       1.900000         CONSTANT HEAD       1
     239       1     120       1       1.900000         CONSTANT HEAD       1
     240       1     120     180       1.900000         CONSTANT HEAD       1
     241       1     121       1       1.900000         CONSTANT HEAD       1
     242       1     121     180       1.900000         CONSTANT HEAD       1
     243       1     122       1       1.900000         CONSTANT HEAD       1
     244       1     122     180       1.900000         CONSTANT HEAD       1
     245       1     123       1       1.900000         CONSTANT HEAD       1
     246       1     123     180       1.900000         CONSTANT HEAD       1
     247       1     124       1       1.900000         CONSTANT HEAD       1
     248       1     124     180       1.900000         CONSTANT HEAD       1
     249       1     125       1       1.900000         CONSTANT HEAD       1
     250       1     125     180       1.900000         CONSTANT HEAD       1
     251       1     126       1       1.900000         CONSTANT HEAD       1
     252       1     126     180       1.900000         CONSTANT HEAD       1
     253       1     127       1       1.900000         CONSTANT HEAD       1
     254       1     127     180       1.900000         CONSTANT HEAD       1
     255       1     128       1       1.900000         CONSTANT HEAD       1
     256       1     128     180       1.900000         CONSTANT HEAD       1
     257       1     129       1       1.900000         CONSTANT HEAD       1
     258       1     129     180       1.900000         CONSTANT HEAD       1
     259       1     130       1       1.900000         CONSTANT HEAD       1
     260       1     130     180       1.900000         CONSTANT HEAD       1
     261       1     131       1       1.900000         CONSTANT HEAD       1
     262       1     131     180       1.900000         CONSTANT HEAD       1
     263       1     132       1       1.900000         CONSTANT HEAD       1
     264       1     132     180       1.900000         CONSTANT HEAD       1
     265       1     133       1       1.900000         CONSTANT HEAD       1
     266       1     133     180       1.900000         CONSTANT HEAD       1
     267       1     134       1       1.900000         CONSTANT HEAD       1
     268       1     134     180       1.900000         CONSTANT HEAD       1
     269       1     135       1       1.900000         CONSTANT HEAD       1
     270       1     135     180       1.900000         CONSTANT HEAD       1
     271       1     136       1       1.900000         CONSTANT HEAD       1
     272       1     136     180       1.900000         CONSTANT HEAD       1
     273       1     137       1       1.900000         CONSTANT HEAD       1
     274       1     137     180       1.900000         CONSTANT HEAD       1
     275       1     138       1       1.900000         CONSTANT HEAD       1
     276       1     138     180       1.900000         CONSTANT HEAD       1
     277       1     139       1       1.900000         CONSTANT HEAD       1
     278       1     139     180       1.900000         CONSTANT HEAD       1
     279       1     140       1       1.900000         CONSTANT HEAD       1
     280       1     140     180       1.900000         CONSTANT HEAD       1
     281       1     141       1       1.900000         CONSTANT HEAD       1
     282       1     141     180       1.900000         CONSTANT HEAD       1
     283       1     142       1       1.900000         CONSTANT HEAD       1
     284       1     142     180       1.900000         CONSTANT HEAD       1
     285       1     143       1       1.900000         CONSTANT HEAD       1
     286       1     143     180       1.900000         CONSTANT HEAD       1
     287       1     144       1       1.900000         CONSTANT HEAD       1
     288       1     144     180       1.900000         CONSTANT HEAD       1
     289       1     145       1       1.900000         CONSTANT HEAD       1
     290       1     145     180       1.900000         CONSTANT HEAD       1
     291       1     146       1       1.900000         CONSTANT HEAD       1
     292       1     146     180       1.900000         CONSTANT HEAD       1
     293       1     147       1       1.900000         CONSTANT HEAD       1
     294       1     147     180       1.900000         CONSTANT HEAD       1
     295       1     148       1       1.900000         CONSTANT HEAD       1
     296       1     148     180       1.900000         CONSTANT HEAD       1
     297       1     149       1       1.900000         CONSTANT HEAD       1
     298       1     149     180       1.900000         CONSTANT HEAD       1
     299       1     150       1       1.900000         CONSTANT HEAD       1
     300       1     150     180       1.900000         CONSTANT HEAD       1
     301       1     151       1       1.900000         CONSTANT HEAD       1
     302       1     151     180       1.900000         CONSTANT HEAD       1
     303       1     152       1       1.900000         CONSTANT HEAD       1
     304       1     152     180       1.900000         CONSTANT HEAD       1
     305       1     153       1       1.900000         CONSTANT HEAD       1
     306       1     153     180       1.900000         CONSTANT HEAD       1
     307       1     154       1       1.900000         CONSTANT HEAD       1
     308       1     154     180       1.900000         CONSTANT HEAD       1
     309       1     155       1       1.900000         CONSTANT HEAD       1
     310       1     155     180       1.900000         CONSTANT HEAD       1
     311       1     156       1       1.900000         CONSTANT HEAD       1
     312       1     156     180       1.900000         CONSTANT HEAD       1
     313       1     157       1       1.900000         CONSTANT HEAD       1
     314       1     157     180       1.900000         CONSTANT HEAD       1
     315       1     158       1       1.900000         CONSTANT HEAD       1
     316       1     158     180       1.900000         CONSTANT HEAD       1
     317       1     159       1       1.900000         CONSTANT HEAD       1
     318       1     159     180       1.900000         CONSTANT HEAD       1
     319       1     160       1       1.900000         CONSTANT HEAD       1
     320       1     160     180       1.900000         CONSTANT HEAD       1
     321       1     161       1       1.900000         CONSTANT HEAD       1
     322       1     161     180       1.900000         CONSTANT HEAD       1
     323       1     162       1       1.900000         CONSTANT HEAD       1
     324       1     162     180       1.900000         CONSTANT HEAD       1
     325       1     163       1       1.900000         CONSTANT HEAD       1
     326       1     163     180       1.900000         CONSTANT HEAD       1
     327       1     164       1       1.900000         CONSTANT HEAD       1
     328       1     164     180       1.900000         CONSTANT HEAD       1
     329       1     165       1       1.900000         CONSTANT HEAD       1
     330       1     165     180       1.900000         CONSTANT HEAD       1
     331       1     166       1       1.900000         CONSTANT HEAD       1
     332       1     166     180       1.900000         CONSTANT HEAD       1
     333       1     167       1       1.900000         CONSTANT HEAD       1
     334       1     167     180       1.900000         CONSTANT HEAD       1
     335       1     168       1       1.900000         CONSTANT HEAD       1
     336       1     168     180       1.900000         CONSTANT HEAD       1
     337       1     169       1       1.900000         CONSTANT HEAD       1
     338       1     169     180       1.900000         CONSTANT HEAD       1
     339       1     170       1       1.900000         CONSTANT HEAD       1
     340       1     170     180       1.900000         CONSTANT HEAD       1
     341       1     171       1       1.900000         CONSTANT HEAD       1
     342       1     171     180       1.900000         CONSTANT HEAD       1
     343       1     172       1       1.900000         CONSTANT HEAD       1
     344       1     172     180       1.900000         CONSTANT HEAD       1
     345       1     173       1       1.900000         CONSTANT HEAD       1
     346       1     173     180       1.900000         CONSTANT HEAD       1
     347       1     174       1       1.900000         CONSTANT HEAD       1
     348       1     174     180       1.900000         CONSTANT HEAD       1
     349       1     175       1       1.900000         CONSTANT HEAD       1
     350       1     175     180       1.900000         CONSTANT HEAD       1
     351       1     176       1       1.900000         CONSTANT HEAD       1
     352       1     176     180       1.900000         CONSTANT HEAD       1
     353       1     177       1       1.900000         CONSTANT HEAD       1
     354       1     177     180       1.900000         CONSTANT HEAD       1
     355       1     178       1       1.900000         CONSTANT HEAD       1
     356       1     178     180       1.900000         CONSTANT HEAD       1
     357       1     179       1       1.900000         CONSTANT HEAD       1
     358       1     179     180       1.900000         CONSTANT HEAD       1
     359       1     180       1       1.900000         CONSTANT HEAD       1
     360       1     180     180       1.900000         CONSTANT HEAD       1
     361       1      91      91      0.1500000         WELL                1


                                          ================================================
                                                         TIME STEP NO.  001
                                          ================================================

 FROM TIME =   570.00     TO    600.00    


                    "THKSAT          " FLOW TERMS FOR TIME STEP  1, STRESS PERIOD 20 READ UNFORMATTED ON UNIT 10
                    --------------------------------------------------------------------------------------------

                    "QXX             " FLOW TERMS FOR TIME STEP  1, STRESS PERIOD 20 READ UNFORMATTED ON UNIT 10
                    --------------------------------------------------------------------------------------------

                    "QYY             " FLOW TERMS FOR TIME STEP  1, STRESS PERIOD 20 READ UNFORMATTED ON UNIT 10
                    --------------------------------------------------------------------------------------------

                    "STO             " FLOW TERMS FOR TIME STEP  1, STRESS PERIOD 20 READ UNFORMATTED ON UNIT 10
                    --------------------------------------------------------------------------------------------

 MAXIMUM STEPSIZE DURING WHICH ANY PARTICLE CANNOT MOVE MORE THAN ONE CELL
 =  1.283    (WHEN MIN. R.F.=1)  AT K=   1, I=  91, J=  92

 MAXIMUM STEPSIZE WHICH MEETS STABILITY CRITERION OF THE ADVECTION TERM
 (FOR PURE FINITE-DIFFERENCE OPTION, MIXELM=0) 
 = 0.4671    (WHEN MIN. R.F.=1)  AT K=   1, I=  91, J=  91

                    "CNH             " FLOW TERMS FOR TIME STEP  1, STRESS PERIOD 20 READ UNFORMATTED ON UNIT 10
                    --------------------------------------------------------------------------------------------

                    "WEL             " FLOW TERMS FOR TIME STEP  1, STRESS PERIOD 20 READ UNFORMATTED ON UNIT 10
                    --------------------------------------------------------------------------------------------


 TOTAL NUMBER OF POINT SOURCES/SINKS PRESENT IN THE FLOW MODEL =   361

 MAXIMUM STEPSIZE WHICH MEETS STABILITY CRITERION OF THE SINK & SOURCE TERM
 = 0.6836E+05(WHEN MIN. R.F.=1)  AT K=   1, I=  90, J= 180

 MAXIMUM STEPSIZE WHICH MEETS STABILITY CRITERION OF THE DISPERSION TERM
 = 0.2335    (WHEN MIN. R.F.=1)  AT K=   1, I=  91, J=  91


     1 CALLS TO GCG PACKAGE FOR TRANSPORT TIME STEP     1 IN FLOW TIME STEP     1 STRESS PERIOD    20
      7 TOTAL ITERATIONS
  MAXIMUM CONCENTRATION CHANGES FOR EACH ITERATION:
  MAX. CHANGE LAYER,ROW,COL MAX. CHANGE LAYER,ROW,COL MAX. CHANGE LAYER,ROW,COL MAX. CHANGE LAYER,ROW,COL MAX. CHANGE LAYER,ROW,COL
 ------------------------------------------------------------------------------------------------------------------------------------
   0.1331     (  1, 90, 93)  0.2616E-01 (  1, 89, 93)  0.3691E-01 (  1, 89, 93)  0.4899E-03 (  1, 93, 91)  0.2252E-03 (  1, 92, 92)
   0.9641E-04 (  1, 92, 92)  0.3636E-05 (  1, 91, 93)



 >>>>>>>>>>>>>>>>>>>>>>>>>>>>>>>>>>>>>>>>>>>>>>>>>>>>>>>FOR COMPONENT NO. 01<<<<<<<<<<<<<<<<<<<<<<<<<<<<<<<<<<<<<<<<<<<<<<<<<<<<<<<


                                            -------------------------------------------
                                                      TRANSPORT STEP NO.    1
                                            -------------------------------------------

 TOTAL ELAPSED TIME SINCE BEGINNING OF SIMULATION =   600.0000    D   
 .....................................................................

                     CUMULATIVE MASS BUDGETS AT END OF TRANSPORT STEP    1, TIME STEP    1, STRESS PERIOD   20
                     -----------------------------------------------------------------------------------------

                                                             IN                           OUT
                                                      ----------------             ----------------
                               CONSTANT CONCENTRATION:    0.000000                    0.000000    
                                        CONSTANT HEAD:    3894806.                   -4055342.    
                                                WELLS:    76840.10                   -258043.2    
                               MASS STOR (FLOW MODEL):    3275680.                   -3259216.    
                                MASS STORAGE (SOLUTE):    889025.8                   -563033.8    
                            ---------------------------------------------------------------------------
                                              [TOTAL]:    8136352.     KG            -8135635.     KG  

                                                          NET (IN - OUT):    717.0000    
                                                   DISCREPANCY (PERCENT):   0.8812691E-02
  ----- 
 | M T |
 | 3 D | END OF MODEL OUTPUT
  ----- 
